[VMEM] WARNING: physical memory size is smaller than virtual memory size.

*** ChampSim Multicore Out-of-Order Simulator ***
Warmup Instructions: 50000000
Simulation Instructions: 250000000
Number of CPUs: 4
Page size: 4096

Off-chip DRAM Size: 16 GiB Channels: 1 Width: 64-bit Data Rate: 3205 MT/s
Heartbeat CPU 0 instructions: 10000000 cycles: 2508126 heartbeat IPC: 3.987 cumulative IPC: 3.987 (Simulation time: 00 hr 02 min 10 sec)
Heartbeat CPU 3 instructions: 10000003 cycles: 2605095 heartbeat IPC: 3.839 cumulative IPC: 3.839 (Simulation time: 00 hr 02 min 15 sec)
Heartbeat CPU 2 instructions: 10000004 cycles: 3384604 heartbeat IPC: 2.955 cumulative IPC: 2.955 (Simulation time: 00 hr 02 min 57 sec)
Heartbeat CPU 0 instructions: 20000003 cycles: 5086916 heartbeat IPC: 3.878 cumulative IPC: 3.932 (Simulation time: 00 hr 04 min 30 sec)
Heartbeat CPU 3 instructions: 20000005 cycles: 5130486 heartbeat IPC: 3.96 cumulative IPC: 3.898 (Simulation time: 00 hr 04 min 32 sec)
Heartbeat CPU 1 instructions: 10000001 cycles: 5764103 heartbeat IPC: 1.735 cumulative IPC: 1.735 (Simulation time: 00 hr 05 min 08 sec)
Heartbeat CPU 2 instructions: 20000008 cycles: 6669471 heartbeat IPC: 3.044 cumulative IPC: 2.999 (Simulation time: 00 hr 05 min 58 sec)
Heartbeat CPU 3 instructions: 30000005 cycles: 7646137 heartbeat IPC: 3.975 cumulative IPC: 3.924 (Simulation time: 00 hr 06 min 51 sec)
Heartbeat CPU 0 instructions: 30000005 cycles: 7681126 heartbeat IPC: 3.855 cumulative IPC: 3.906 (Simulation time: 00 hr 06 min 53 sec)
Heartbeat CPU 2 instructions: 30000009 cycles: 9874489 heartbeat IPC: 3.12 cumulative IPC: 3.038 (Simulation time: 00 hr 08 min 54 sec)
Heartbeat CPU 3 instructions: 40000006 cycles: 10163961 heartbeat IPC: 3.972 cumulative IPC: 3.935 (Simulation time: 00 hr 09 min 11 sec)
Heartbeat CPU 0 instructions: 40000009 cycles: 10184765 heartbeat IPC: 3.994 cumulative IPC: 3.927 (Simulation time: 00 hr 09 min 12 sec)
Heartbeat CPU 1 instructions: 20000004 cycles: 10554018 heartbeat IPC: 2.088 cumulative IPC: 1.895 (Simulation time: 00 hr 09 min 33 sec)
Warmup finished CPU 3 instructions: 50000000 cycles: 12680808 cumulative IPC: 3.943 (Simulation time: 00 hr 11 min 33 sec)
Heartbeat CPU 3 instructions: 50000008 cycles: 12680810 heartbeat IPC: 3.973 cumulative IPC: 3.943 (Simulation time: 00 hr 11 min 33 sec)
Warmup finished CPU 0 instructions: 50000002 cycles: 12688968 cumulative IPC: 3.94 (Simulation time: 00 hr 11 min 33 sec)
Heartbeat CPU 0 instructions: 50000010 cycles: 12688970 heartbeat IPC: 3.993 cumulative IPC: 3.94 (Simulation time: 00 hr 11 min 33 sec)
Heartbeat CPU 2 instructions: 40000012 cycles: 13056032 heartbeat IPC: 3.143 cumulative IPC: 3.064 (Simulation time: 00 hr 11 min 54 sec)
Heartbeat CPU 1 instructions: 30000005 cycles: 14930746 heartbeat IPC: 2.285 cumulative IPC: 2.009 (Simulation time: 00 hr 13 min 40 sec)
Heartbeat CPU 0 instructions: 60000013 cycles: 15191077 heartbeat IPC: 3.997 cumulative IPC: 3.95 (Simulation time: 00 hr 13 min 55 sec)
Heartbeat CPU 3 instructions: 60000010 cycles: 15197729 heartbeat IPC: 3.973 cumulative IPC: 3.948 (Simulation time: 00 hr 13 min 56 sec)
Warmup finished CPU 2 instructions: 50000004 cycles: 16201113 cumulative IPC: 3.086 (Simulation time: 00 hr 14 min 54 sec)
Heartbeat CPU 2 instructions: 50000014 cycles: 16201115 heartbeat IPC: 3.18 cumulative IPC: 3.086 (Simulation time: 00 hr 14 min 54 sec)
Heartbeat CPU 0 instructions: 70000015 cycles: 17695163 heartbeat IPC: 3.993 cumulative IPC: 3.956 (Simulation time: 00 hr 16 min 19 sec)
Heartbeat CPU 3 instructions: 70000011 cycles: 17714151 heartbeat IPC: 3.974 cumulative IPC: 3.952 (Simulation time: 00 hr 16 min 20 sec)
Heartbeat CPU 1 instructions: 40000007 cycles: 19218777 heartbeat IPC: 2.332 cumulative IPC: 2.081 (Simulation time: 00 hr 17 min 45 sec)
Heartbeat CPU 2 instructions: 60000017 cycles: 19360883 heartbeat IPC: 3.165 cumulative IPC: 3.099 (Simulation time: 00 hr 17 min 53 sec)
Heartbeat CPU 0 instructions: 80000015 cycles: 20197257 heartbeat IPC: 3.997 cumulative IPC: 3.961 (Simulation time: 00 hr 18 min 42 sec)
Heartbeat CPU 3 instructions: 80000012 cycles: 20229725 heartbeat IPC: 3.975 cumulative IPC: 3.955 (Simulation time: 00 hr 18 min 44 sec)
Heartbeat CPU 2 instructions: 70000018 cycles: 22454401 heartbeat IPC: 3.233 cumulative IPC: 3.117 (Simulation time: 00 hr 20 min 53 sec)
Heartbeat CPU 0 instructions: 90000015 cycles: 22700317 heartbeat IPC: 3.995 cumulative IPC: 3.965 (Simulation time: 00 hr 21 min 08 sec)
Heartbeat CPU 3 instructions: 90000012 cycles: 22745653 heartbeat IPC: 3.975 cumulative IPC: 3.957 (Simulation time: 00 hr 21 min 10 sec)
Warmup finished CPU 1 instructions: 50000003 cycles: 23036690 cumulative IPC: 2.17 (Simulation time: 00 hr 21 min 27 sec)
Warmup complete CPU 3 instructions: 91155147 cycles: 23036690 cumulative IPC: 3.957 (Simulation time: 00 hr 21 min 27 sec)
Warmup complete CPU 2 instructions: 71881189 cycles: 23036690 cumulative IPC: 3.12 (Simulation time: 00 hr 21 min 27 sec)
Warmup complete CPU 1 instructions: 50000003 cycles: 23036690 cumulative IPC: 2.17 (Simulation time: 00 hr 21 min 27 sec)
Warmup complete CPU 0 instructions: 91344748 cycles: 23036690 cumulative IPC: 3.965 (Simulation time: 00 hr 21 min 27 sec)
Heartbeat CPU 1 instructions: 50000008 cycles: 23036691 heartbeat IPC: 2.619 cumulative IPC: 5 (Simulation time: 00 hr 21 min 27 sec)
Heartbeat CPU 0 instructions: 100000017 cycles: 27331113 heartbeat IPC: 2.159 cumulative IPC: 2.015 (Simulation time: 00 hr 23 min 33 sec)
Heartbeat CPU 3 instructions: 100000013 cycles: 29380113 heartbeat IPC: 1.507 cumulative IPC: 1.394 (Simulation time: 00 hr 24 min 34 sec)
Heartbeat CPU 2 instructions: 80000021 cycles: 29803068 heartbeat IPC: 1.361 cumulative IPC: 1.2 (Simulation time: 00 hr 24 min 46 sec)
Heartbeat CPU 0 instructions: 110000021 cycles: 32309814 heartbeat IPC: 2.009 cumulative IPC: 2.012 (Simulation time: 00 hr 26 min 00 sec)
Heartbeat CPU 3 instructions: 110000013 cycles: 36547867 heartbeat IPC: 1.395 cumulative IPC: 1.395 (Simulation time: 00 hr 28 min 06 sec)
Heartbeat CPU 0 instructions: 120000022 cycles: 37279816 heartbeat IPC: 2.012 cumulative IPC: 2.012 (Simulation time: 00 hr 28 min 27 sec)
Heartbeat CPU 2 instructions: 90000021 cycles: 37869995 heartbeat IPC: 1.24 cumulative IPC: 1.221 (Simulation time: 00 hr 28 min 46 sec)
Heartbeat CPU 0 instructions: 130000023 cycles: 42389993 heartbeat IPC: 1.957 cumulative IPC: 1.997 (Simulation time: 00 hr 30 min 58 sec)
Heartbeat CPU 2 instructions: 100000023 cycles: 46083156 heartbeat IPC: 1.218 cumulative IPC: 1.22 (Simulation time: 00 hr 32 min 39 sec)
Heartbeat CPU 0 instructions: 140000026 cycles: 47634329 heartbeat IPC: 1.907 cumulative IPC: 1.978 (Simulation time: 00 hr 33 min 21 sec)
Heartbeat CPU 0 instructions: 150000026 cycles: 52742670 heartbeat IPC: 1.958 cumulative IPC: 1.975 (Simulation time: 00 hr 35 min 42 sec)
Heartbeat CPU 3 instructions: 120000014 cycles: 53438131 heartbeat IPC: 0.5921 cumulative IPC: 0.9488 (Simulation time: 00 hr 36 min 02 sec)
Heartbeat CPU 2 instructions: 110000024 cycles: 54208167 heartbeat IPC: 1.231 cumulative IPC: 1.223 (Simulation time: 00 hr 36 min 25 sec)
Heartbeat CPU 0 instructions: 160000028 cycles: 57803721 heartbeat IPC: 1.976 cumulative IPC: 1.975 (Simulation time: 00 hr 38 min 11 sec)
Heartbeat CPU 1 instructions: 60000008 cycles: 59010959 heartbeat IPC: 0.278 cumulative IPC: 0.278 (Simulation time: 00 hr 38 min 46 sec)
Heartbeat CPU 3 instructions: 130000018 cycles: 60861080 heartbeat IPC: 1.347 cumulative IPC: 1.027 (Simulation time: 00 hr 39 min 40 sec)
Heartbeat CPU 2 instructions: 120000024 cycles: 62026752 heartbeat IPC: 1.279 cumulative IPC: 1.234 (Simulation time: 00 hr 40 min 13 sec)
Heartbeat CPU 0 instructions: 170000028 cycles: 62995518 heartbeat IPC: 1.926 cumulative IPC: 1.968 (Simulation time: 00 hr 40 min 41 sec)
Heartbeat CPU 3 instructions: 140000018 cycles: 68161908 heartbeat IPC: 1.37 cumulative IPC: 1.082 (Simulation time: 00 hr 43 min 09 sec)
Heartbeat CPU 0 instructions: 180000029 cycles: 68220244 heartbeat IPC: 1.914 cumulative IPC: 1.962 (Simulation time: 00 hr 43 min 11 sec)
Heartbeat CPU 2 instructions: 130000027 cycles: 70301868 heartbeat IPC: 1.208 cumulative IPC: 1.23 (Simulation time: 00 hr 44 min 10 sec)
Heartbeat CPU 0 instructions: 190000030 cycles: 73388060 heartbeat IPC: 1.935 cumulative IPC: 1.959 (Simulation time: 00 hr 45 min 40 sec)
Heartbeat CPU 3 instructions: 150000018 cycles: 75390256 heartbeat IPC: 1.383 cumulative IPC: 1.124 (Simulation time: 00 hr 46 min 38 sec)
Heartbeat CPU 0 instructions: 200000031 cycles: 78353625 heartbeat IPC: 2.014 cumulative IPC: 1.964 (Simulation time: 00 hr 48 min 04 sec)
Heartbeat CPU 2 instructions: 140000030 cycles: 78373569 heartbeat IPC: 1.239 cumulative IPC: 1.231 (Simulation time: 00 hr 48 min 04 sec)
Heartbeat CPU 3 instructions: 160000020 cycles: 82624395 heartbeat IPC: 1.382 cumulative IPC: 1.155 (Simulation time: 00 hr 50 min 08 sec)
Heartbeat CPU 0 instructions: 210000033 cycles: 83447971 heartbeat IPC: 1.963 cumulative IPC: 1.964 (Simulation time: 00 hr 50 min 31 sec)
Heartbeat CPU 2 instructions: 150000032 cycles: 86363591 heartbeat IPC: 1.252 cumulative IPC: 1.234 (Simulation time: 00 hr 51 min 55 sec)
Heartbeat CPU 0 instructions: 220000034 cycles: 88635189 heartbeat IPC: 1.928 cumulative IPC: 1.961 (Simulation time: 00 hr 53 min 01 sec)
Heartbeat CPU 3 instructions: 170000022 cycles: 89966508 heartbeat IPC: 1.362 cumulative IPC: 1.178 (Simulation time: 00 hr 53 min 40 sec)
Heartbeat CPU 1 instructions: 70000008 cycles: 92899409 heartbeat IPC: 0.2951 cumulative IPC: 0.2863 (Simulation time: 00 hr 55 min 05 sec)
Heartbeat CPU 0 instructions: 230000034 cycles: 93712188 heartbeat IPC: 1.97 cumulative IPC: 1.962 (Simulation time: 00 hr 55 min 28 sec)
Heartbeat CPU 2 instructions: 160000032 cycles: 94459433 heartbeat IPC: 1.235 cumulative IPC: 1.234 (Simulation time: 00 hr 55 min 50 sec)
Heartbeat CPU 3 instructions: 180000024 cycles: 97223919 heartbeat IPC: 1.378 cumulative IPC: 1.198 (Simulation time: 00 hr 57 min 10 sec)
Heartbeat CPU 0 instructions: 240000036 cycles: 98819748 heartbeat IPC: 1.958 cumulative IPC: 1.962 (Simulation time: 00 hr 57 min 56 sec)
Heartbeat CPU 2 instructions: 170000035 cycles: 102593563 heartbeat IPC: 1.229 cumulative IPC: 1.233 (Simulation time: 00 hr 59 min 46 sec)
Heartbeat CPU 0 instructions: 250000037 cycles: 103840717 heartbeat IPC: 1.992 cumulative IPC: 1.963 (Simulation time: 01 hr 00 min 22 sec)
Heartbeat CPU 3 instructions: 190000026 cycles: 104507196 heartbeat IPC: 1.373 cumulative IPC: 1.213 (Simulation time: 01 hr 00 min 41 sec)
Heartbeat CPU 0 instructions: 260000039 cycles: 108887387 heartbeat IPC: 1.982 cumulative IPC: 1.965 (Simulation time: 01 hr 02 min 47 sec)
Heartbeat CPU 2 instructions: 180000035 cycles: 110681774 heartbeat IPC: 1.236 cumulative IPC: 1.234 (Simulation time: 01 hr 03 min 39 sec)
Heartbeat CPU 3 instructions: 200000028 cycles: 111830274 heartbeat IPC: 1.366 cumulative IPC: 1.226 (Simulation time: 01 hr 04 min 13 sec)
Heartbeat CPU 0 instructions: 270000043 cycles: 113989426 heartbeat IPC: 1.96 cumulative IPC: 1.964 (Simulation time: 01 hr 05 min 15 sec)
Heartbeat CPU 0 instructions: 280000045 cycles: 118964334 heartbeat IPC: 2.01 cumulative IPC: 1.967 (Simulation time: 01 hr 07 min 39 sec)
Heartbeat CPU 2 instructions: 190000039 cycles: 119036392 heartbeat IPC: 1.197 cumulative IPC: 1.23 (Simulation time: 01 hr 07 min 41 sec)
Heartbeat CPU 3 instructions: 210000030 cycles: 119049137 heartbeat IPC: 1.385 cumulative IPC: 1.238 (Simulation time: 01 hr 07 min 41 sec)
Heartbeat CPU 0 instructions: 290000045 cycles: 124020451 heartbeat IPC: 1.978 cumulative IPC: 1.967 (Simulation time: 01 hr 10 min 04 sec)
Heartbeat CPU 3 instructions: 220000030 cycles: 126299745 heartbeat IPC: 1.379 cumulative IPC: 1.248 (Simulation time: 01 hr 11 min 10 sec)
Heartbeat CPU 2 instructions: 200000043 cycles: 127424328 heartbeat IPC: 1.192 cumulative IPC: 1.227 (Simulation time: 01 hr 11 min 42 sec)
Heartbeat CPU 1 instructions: 80000011 cycles: 127770180 heartbeat IPC: 0.2868 cumulative IPC: 0.2864 (Simulation time: 01 hr 11 min 52 sec)
Heartbeat CPU 0 instructions: 300000049 cycles: 129115007 heartbeat IPC: 1.963 cumulative IPC: 1.967 (Simulation time: 01 hr 12 min 31 sec)
Heartbeat CPU 3 instructions: 230000033 cycles: 133548566 heartbeat IPC: 1.38 cumulative IPC: 1.256 (Simulation time: 01 hr 14 min 40 sec)
Heartbeat CPU 0 instructions: 310000052 cycles: 134101678 heartbeat IPC: 2.005 cumulative IPC: 1.969 (Simulation time: 01 hr 14 min 57 sec)
Heartbeat CPU 2 instructions: 210000046 cycles: 135440678 heartbeat IPC: 1.247 cumulative IPC: 1.229 (Simulation time: 01 hr 15 min 35 sec)
Heartbeat CPU 0 instructions: 320000052 cycles: 139189275 heartbeat IPC: 1.966 cumulative IPC: 1.969 (Simulation time: 01 hr 17 min 24 sec)
Heartbeat CPU 3 instructions: 240000037 cycles: 140778172 heartbeat IPC: 1.383 cumulative IPC: 1.264 (Simulation time: 01 hr 18 min 10 sec)
Heartbeat CPU 2 instructions: 220000047 cycles: 143712404 heartbeat IPC: 1.209 cumulative IPC: 1.227 (Simulation time: 01 hr 19 min 34 sec)
Heartbeat CPU 0 instructions: 330000054 cycles: 144317561 heartbeat IPC: 1.95 cumulative IPC: 1.968 (Simulation time: 01 hr 19 min 52 sec)
Heartbeat CPU 3 instructions: 250000038 cycles: 147995909 heartbeat IPC: 1.385 cumulative IPC: 1.271 (Simulation time: 01 hr 21 min 37 sec)
Heartbeat CPU 0 instructions: 340000054 cycles: 149456865 heartbeat IPC: 1.946 cumulative IPC: 1.967 (Simulation time: 01 hr 22 min 20 sec)
Simulation finished CPU 0 instructions: 250000001 cycles: 127069255 cumulative IPC: 1.967 (Simulation time: 01 hr 22 min 39 sec)
Heartbeat CPU 2 instructions: 230000048 cycles: 152068004 heartbeat IPC: 1.197 cumulative IPC: 1.225 (Simulation time: 01 hr 23 min 36 sec)
Heartbeat CPU 0 instructions: 350000057 cycles: 154560951 heartbeat IPC: 1.959 cumulative IPC: 1.967 (Simulation time: 01 hr 24 min 49 sec)
Heartbeat CPU 3 instructions: 260000039 cycles: 155195874 heartbeat IPC: 1.389 cumulative IPC: 1.278 (Simulation time: 01 hr 25 min 08 sec)
Heartbeat CPU 0 instructions: 360000057 cycles: 159771162 heartbeat IPC: 1.919 cumulative IPC: 1.965 (Simulation time: 01 hr 27 min 20 sec)
Heartbeat CPU 2 instructions: 240000050 cycles: 160086510 heartbeat IPC: 1.247 cumulative IPC: 1.227 (Simulation time: 01 hr 27 min 30 sec)
Heartbeat CPU 1 instructions: 90000012 cycles: 161929520 heartbeat IPC: 0.2927 cumulative IPC: 0.288 (Simulation time: 01 hr 28 min 24 sec)
Heartbeat CPU 3 instructions: 270000039 cycles: 162424174 heartbeat IPC: 1.383 cumulative IPC: 1.283 (Simulation time: 01 hr 28 min 38 sec)
Heartbeat CPU 0 instructions: 370000057 cycles: 164775436 heartbeat IPC: 1.998 cumulative IPC: 1.966 (Simulation time: 01 hr 29 min 46 sec)
Heartbeat CPU 2 instructions: 250000050 cycles: 168073282 heartbeat IPC: 1.252 cumulative IPC: 1.228 (Simulation time: 01 hr 31 min 21 sec)
Heartbeat CPU 3 instructions: 280000041 cycles: 169657532 heartbeat IPC: 1.382 cumulative IPC: 1.288 (Simulation time: 01 hr 32 min 07 sec)
Heartbeat CPU 0 instructions: 380000060 cycles: 169958586 heartbeat IPC: 1.929 cumulative IPC: 1.965 (Simulation time: 01 hr 32 min 15 sec)
Heartbeat CPU 0 instructions: 390000064 cycles: 175028625 heartbeat IPC: 1.972 cumulative IPC: 1.965 (Simulation time: 01 hr 34 min 42 sec)
Heartbeat CPU 2 instructions: 260000050 cycles: 176127908 heartbeat IPC: 1.242 cumulative IPC: 1.229 (Simulation time: 01 hr 35 min 13 sec)
Heartbeat CPU 3 instructions: 290000042 cycles: 176866773 heartbeat IPC: 1.387 cumulative IPC: 1.293 (Simulation time: 01 hr 35 min 35 sec)
Heartbeat CPU 0 instructions: 400000064 cycles: 180244583 heartbeat IPC: 1.917 cumulative IPC: 1.963 (Simulation time: 01 hr 37 min 13 sec)
Heartbeat CPU 2 instructions: 270000051 cycles: 184046771 heartbeat IPC: 1.263 cumulative IPC: 1.23 (Simulation time: 01 hr 39 min 03 sec)
Heartbeat CPU 3 instructions: 300000042 cycles: 184101992 heartbeat IPC: 1.382 cumulative IPC: 1.297 (Simulation time: 01 hr 39 min 05 sec)
Heartbeat CPU 0 instructions: 410000065 cycles: 185377605 heartbeat IPC: 1.948 cumulative IPC: 1.963 (Simulation time: 01 hr 39 min 41 sec)
Heartbeat CPU 0 instructions: 420000065 cycles: 190470379 heartbeat IPC: 1.964 cumulative IPC: 1.963 (Simulation time: 01 hr 42 min 07 sec)
Heartbeat CPU 3 instructions: 310000044 cycles: 191321599 heartbeat IPC: 1.385 cumulative IPC: 1.3 (Simulation time: 01 hr 42 min 32 sec)
Heartbeat CPU 2 instructions: 280000052 cycles: 192299505 heartbeat IPC: 1.212 cumulative IPC: 1.23 (Simulation time: 01 hr 43 min 00 sec)
Heartbeat CPU 0 instructions: 430000067 cycles: 195586304 heartbeat IPC: 1.955 cumulative IPC: 1.963 (Simulation time: 01 hr 44 min 35 sec)
Heartbeat CPU 1 instructions: 100000014 cycles: 196278140 heartbeat IPC: 0.2911 cumulative IPC: 0.2886 (Simulation time: 01 hr 44 min 55 sec)
Heartbeat CPU 3 instructions: 320000044 cycles: 198536086 heartbeat IPC: 1.386 cumulative IPC: 1.304 (Simulation time: 01 hr 46 min 01 sec)
Heartbeat CPU 2 instructions: 290000055 cycles: 200503065 heartbeat IPC: 1.219 cumulative IPC: 1.229 (Simulation time: 01 hr 46 min 57 sec)
Heartbeat CPU 0 instructions: 440000068 cycles: 200756089 heartbeat IPC: 1.934 cumulative IPC: 1.962 (Simulation time: 01 hr 47 min 04 sec)
Heartbeat CPU 0 instructions: 450000070 cycles: 205757052 heartbeat IPC: 2 cumulative IPC: 1.963 (Simulation time: 01 hr 49 min 29 sec)
Heartbeat CPU 3 instructions: 330000047 cycles: 205757874 heartbeat IPC: 1.385 cumulative IPC: 1.307 (Simulation time: 01 hr 49 min 29 sec)
Heartbeat CPU 2 instructions: 300000055 cycles: 208448109 heartbeat IPC: 1.259 cumulative IPC: 1.23 (Simulation time: 01 hr 50 min 47 sec)
Heartbeat CPU 0 instructions: 460000072 cycles: 210778768 heartbeat IPC: 1.991 cumulative IPC: 1.964 (Simulation time: 01 hr 51 min 54 sec)
Heartbeat CPU 3 instructions: 340000047 cycles: 212971526 heartbeat IPC: 1.386 cumulative IPC: 1.31 (Simulation time: 01 hr 52 min 58 sec)
Simulation finished CPU 3 instructions: 250000001 cycles: 190782678 cumulative IPC: 1.31 (Simulation time: 01 hr 53 min 22 sec)
Heartbeat CPU 0 instructions: 470000072 cycles: 215646678 heartbeat IPC: 2.054 cumulative IPC: 1.966 (Simulation time: 01 hr 54 min 14 sec)
Heartbeat CPU 2 instructions: 310000058 cycles: 216580161 heartbeat IPC: 1.23 cumulative IPC: 1.23 (Simulation time: 01 hr 54 min 41 sec)
Heartbeat CPU 3 instructions: 350000049 cycles: 220222465 heartbeat IPC: 1.379 cumulative IPC: 1.313 (Simulation time: 01 hr 56 min 26 sec)
Heartbeat CPU 0 instructions: 480000073 cycles: 220593323 heartbeat IPC: 2.022 cumulative IPC: 1.967 (Simulation time: 01 hr 56 min 37 sec)
Heartbeat CPU 2 instructions: 320000062 cycles: 224555771 heartbeat IPC: 1.254 cumulative IPC: 1.231 (Simulation time: 01 hr 58 min 32 sec)
Heartbeat CPU 0 instructions: 490000077 cycles: 225466531 heartbeat IPC: 2.052 cumulative IPC: 1.969 (Simulation time: 01 hr 58 min 59 sec)
Simulation finished CPU 2 instructions: 250000002 cycles: 203048698 cumulative IPC: 1.231 (Simulation time: 01 hr 59 min 17 sec)
Heartbeat CPU 3 instructions: 360000051 cycles: 227466609 heartbeat IPC: 1.38 cumulative IPC: 1.315 (Simulation time: 01 hr 59 min 57 sec)
Heartbeat CPU 1 instructions: 110000015 cycles: 229529934 heartbeat IPC: 0.3007 cumulative IPC: 0.2906 (Simulation time: 02 hr 00 min 56 sec)
Heartbeat CPU 0 instructions: 500000080 cycles: 230364994 heartbeat IPC: 2.041 cumulative IPC: 1.971 (Simulation time: 02 hr 01 min 21 sec)
Heartbeat CPU 2 instructions: 330000062 cycles: 232751082 heartbeat IPC: 1.22 cumulative IPC: 1.231 (Simulation time: 02 hr 02 min 29 sec)
Heartbeat CPU 3 instructions: 370000053 cycles: 234665069 heartbeat IPC: 1.389 cumulative IPC: 1.318 (Simulation time: 02 hr 03 min 25 sec)
Heartbeat CPU 0 instructions: 510000084 cycles: 235239911 heartbeat IPC: 2.051 cumulative IPC: 1.973 (Simulation time: 02 hr 03 min 42 sec)
Heartbeat CPU 0 instructions: 520000086 cycles: 240153162 heartbeat IPC: 2.035 cumulative IPC: 1.974 (Simulation time: 02 hr 06 min 04 sec)
Heartbeat CPU 2 instructions: 340000065 cycles: 240728187 heartbeat IPC: 1.254 cumulative IPC: 1.232 (Simulation time: 02 hr 06 min 20 sec)
Heartbeat CPU 3 instructions: 380000053 cycles: 241934292 heartbeat IPC: 1.376 cumulative IPC: 1.32 (Simulation time: 02 hr 06 min 55 sec)
Heartbeat CPU 0 instructions: 530000087 cycles: 246471213 heartbeat IPC: 1.583 cumulative IPC: 1.963 (Simulation time: 02 hr 09 min 14 sec)
Heartbeat CPU 2 instructions: 350000065 cycles: 248874585 heartbeat IPC: 1.228 cumulative IPC: 1.231 (Simulation time: 02 hr 10 min 28 sec)
Heartbeat CPU 3 instructions: 390000053 cycles: 249157623 heartbeat IPC: 1.384 cumulative IPC: 1.322 (Simulation time: 02 hr 10 min 36 sec)
Heartbeat CPU 0 instructions: 540000088 cycles: 252335846 heartbeat IPC: 1.705 cumulative IPC: 1.957 (Simulation time: 02 hr 12 min 09 sec)
Heartbeat CPU 3 instructions: 400000055 cycles: 256355605 heartbeat IPC: 1.389 cumulative IPC: 1.324 (Simulation time: 02 hr 14 min 05 sec)
Heartbeat CPU 2 instructions: 360000066 cycles: 256766875 heartbeat IPC: 1.267 cumulative IPC: 1.233 (Simulation time: 02 hr 14 min 18 sec)
Heartbeat CPU 0 instructions: 550000090 cycles: 257214299 heartbeat IPC: 2.05 cumulative IPC: 1.959 (Simulation time: 02 hr 14 min 30 sec)
Heartbeat CPU 0 instructions: 560000093 cycles: 262126831 heartbeat IPC: 2.036 cumulative IPC: 1.96 (Simulation time: 02 hr 16 min 53 sec)
Heartbeat CPU 1 instructions: 120000015 cycles: 263244062 heartbeat IPC: 0.2966 cumulative IPC: 0.2914 (Simulation time: 02 hr 17 min 25 sec)
Heartbeat CPU 3 instructions: 410000056 cycles: 263605987 heartbeat IPC: 1.379 cumulative IPC: 1.325 (Simulation time: 02 hr 17 min 36 sec)
Heartbeat CPU 2 instructions: 370000068 cycles: 264781630 heartbeat IPC: 1.248 cumulative IPC: 1.233 (Simulation time: 02 hr 18 min 10 sec)
Heartbeat CPU 0 instructions: 570000096 cycles: 267009889 heartbeat IPC: 2.048 cumulative IPC: 1.962 (Simulation time: 02 hr 19 min 14 sec)
Heartbeat CPU 3 instructions: 420000057 cycles: 270898513 heartbeat IPC: 1.371 cumulative IPC: 1.327 (Simulation time: 02 hr 21 min 07 sec)
Heartbeat CPU 0 instructions: 580000098 cycles: 271897780 heartbeat IPC: 2.046 cumulative IPC: 1.964 (Simulation time: 02 hr 21 min 36 sec)
Heartbeat CPU 2 instructions: 380000070 cycles: 272561278 heartbeat IPC: 1.285 cumulative IPC: 1.235 (Simulation time: 02 hr 21 min 56 sec)
Heartbeat CPU 0 instructions: 590000101 cycles: 276765334 heartbeat IPC: 2.054 cumulative IPC: 1.965 (Simulation time: 02 hr 23 min 57 sec)
Heartbeat CPU 3 instructions: 430000058 cycles: 278217223 heartbeat IPC: 1.366 cumulative IPC: 1.328 (Simulation time: 02 hr 24 min 39 sec)
Heartbeat CPU 2 instructions: 390000071 cycles: 280489093 heartbeat IPC: 1.261 cumulative IPC: 1.236 (Simulation time: 02 hr 25 min 45 sec)
Heartbeat CPU 0 instructions: 600000101 cycles: 281634145 heartbeat IPC: 2.054 cumulative IPC: 1.967 (Simulation time: 02 hr 26 min 18 sec)
Heartbeat CPU 3 instructions: 440000060 cycles: 285523487 heartbeat IPC: 1.369 cumulative IPC: 1.329 (Simulation time: 02 hr 28 min 10 sec)
Heartbeat CPU 0 instructions: 610000101 cycles: 286514649 heartbeat IPC: 2.049 cumulative IPC: 1.968 (Simulation time: 02 hr 28 min 39 sec)
Heartbeat CPU 2 instructions: 400000071 cycles: 288376100 heartbeat IPC: 1.268 cumulative IPC: 1.237 (Simulation time: 02 hr 29 min 33 sec)
Heartbeat CPU 0 instructions: 620000101 cycles: 291408493 heartbeat IPC: 2.043 cumulative IPC: 1.97 (Simulation time: 02 hr 31 min 01 sec)
Heartbeat CPU 3 instructions: 450000060 cycles: 292751776 heartbeat IPC: 1.383 cumulative IPC: 1.33 (Simulation time: 02 hr 31 min 39 sec)
Heartbeat CPU 1 instructions: 130000015 cycles: 296244764 heartbeat IPC: 0.303 cumulative IPC: 0.2928 (Simulation time: 02 hr 33 min 20 sec)
Heartbeat CPU 0 instructions: 630000101 cycles: 296304682 heartbeat IPC: 2.042 cumulative IPC: 1.971 (Simulation time: 02 hr 33 min 22 sec)
Heartbeat CPU 2 instructions: 410000075 cycles: 296570583 heartbeat IPC: 1.22 cumulative IPC: 1.236 (Simulation time: 02 hr 33 min 30 sec)
Heartbeat CPU 3 instructions: 460000061 cycles: 300009317 heartbeat IPC: 1.378 cumulative IPC: 1.332 (Simulation time: 02 hr 35 min 09 sec)
Heartbeat CPU 0 instructions: 640000105 cycles: 301178080 heartbeat IPC: 2.052 cumulative IPC: 1.973 (Simulation time: 02 hr 35 min 43 sec)
Heartbeat CPU 2 instructions: 420000076 cycles: 304454425 heartbeat IPC: 1.268 cumulative IPC: 1.237 (Simulation time: 02 hr 37 min 19 sec)
Heartbeat CPU 0 instructions: 650000107 cycles: 306073889 heartbeat IPC: 2.043 cumulative IPC: 1.974 (Simulation time: 02 hr 38 min 06 sec)
Heartbeat CPU 3 instructions: 470000061 cycles: 307319038 heartbeat IPC: 1.368 cumulative IPC: 1.333 (Simulation time: 02 hr 38 min 42 sec)
Heartbeat CPU 0 instructions: 660000107 cycles: 311062582 heartbeat IPC: 2.005 cumulative IPC: 1.974 (Simulation time: 02 hr 40 min 32 sec)
Heartbeat CPU 2 instructions: 430000079 cycles: 312153220 heartbeat IPC: 1.299 cumulative IPC: 1.239 (Simulation time: 02 hr 41 min 03 sec)
Heartbeat CPU 3 instructions: 480000062 cycles: 314554154 heartbeat IPC: 1.382 cumulative IPC: 1.334 (Simulation time: 02 hr 42 min 13 sec)
Heartbeat CPU 0 instructions: 670000111 cycles: 316152379 heartbeat IPC: 1.965 cumulative IPC: 1.974 (Simulation time: 02 hr 42 min 59 sec)
Heartbeat CPU 2 instructions: 440000079 cycles: 320094929 heartbeat IPC: 1.259 cumulative IPC: 1.239 (Simulation time: 02 hr 44 min 53 sec)
Heartbeat CPU 0 instructions: 680000112 cycles: 321304197 heartbeat IPC: 1.941 cumulative IPC: 1.974 (Simulation time: 02 hr 45 min 28 sec)
Heartbeat CPU 3 instructions: 490000063 cycles: 321775881 heartbeat IPC: 1.385 cumulative IPC: 1.335 (Simulation time: 02 hr 45 min 41 sec)
Heartbeat CPU 0 instructions: 690000116 cycles: 326391840 heartbeat IPC: 1.966 cumulative IPC: 1.973 (Simulation time: 02 hr 47 min 54 sec)
Heartbeat CPU 2 instructions: 450000083 cycles: 328178915 heartbeat IPC: 1.237 cumulative IPC: 1.239 (Simulation time: 02 hr 48 min 46 sec)
Heartbeat CPU 1 instructions: 140000016 cycles: 328633322 heartbeat IPC: 0.3088 cumulative IPC: 0.2945 (Simulation time: 02 hr 48 min 59 sec)
Heartbeat CPU 3 instructions: 500000066 cycles: 328965686 heartbeat IPC: 1.391 cumulative IPC: 1.336 (Simulation time: 02 hr 49 min 09 sec)
Heartbeat CPU 0 instructions: 700000117 cycles: 331439703 heartbeat IPC: 1.981 cumulative IPC: 1.974 (Simulation time: 02 hr 50 min 20 sec)
Heartbeat CPU 3 instructions: 510000067 cycles: 336222439 heartbeat IPC: 1.378 cumulative IPC: 1.337 (Simulation time: 02 hr 52 min 38 sec)
Heartbeat CPU 2 instructions: 460000083 cycles: 336388998 heartbeat IPC: 1.218 cumulative IPC: 1.239 (Simulation time: 02 hr 52 min 42 sec)
Heartbeat CPU 0 instructions: 710000118 cycles: 336576771 heartbeat IPC: 1.947 cumulative IPC: 1.973 (Simulation time: 02 hr 52 min 48 sec)
Heartbeat CPU 0 instructions: 720000119 cycles: 341847600 heartbeat IPC: 1.897 cumulative IPC: 1.972 (Simulation time: 02 hr 55 min 20 sec)
Heartbeat CPU 3 instructions: 520000067 cycles: 343424025 heartbeat IPC: 1.389 cumulative IPC: 1.339 (Simulation time: 02 hr 56 min 06 sec)
Heartbeat CPU 2 instructions: 470000083 cycles: 344390363 heartbeat IPC: 1.25 cumulative IPC: 1.239 (Simulation time: 02 hr 56 min 33 sec)
Heartbeat CPU 0 instructions: 730000119 cycles: 347004189 heartbeat IPC: 1.939 cumulative IPC: 1.971 (Simulation time: 02 hr 57 min 49 sec)
Heartbeat CPU 3 instructions: 530000068 cycles: 350683890 heartbeat IPC: 1.377 cumulative IPC: 1.339 (Simulation time: 02 hr 59 min 34 sec)
Heartbeat CPU 0 instructions: 740000119 cycles: 352084838 heartbeat IPC: 1.968 cumulative IPC: 1.971 (Simulation time: 03 hr 00 min 15 sec)
Heartbeat CPU 2 instructions: 480000085 cycles: 352505403 heartbeat IPC: 1.232 cumulative IPC: 1.239 (Simulation time: 03 hr 00 min 27 sec)
Heartbeat CPU 0 instructions: 750000120 cycles: 357275923 heartbeat IPC: 1.926 cumulative IPC: 1.971 (Simulation time: 03 hr 02 min 45 sec)
Heartbeat CPU 3 instructions: 540000070 cycles: 357915215 heartbeat IPC: 1.383 cumulative IPC: 1.34 (Simulation time: 03 hr 03 min 03 sec)
Heartbeat CPU 2 instructions: 490000085 cycles: 360374851 heartbeat IPC: 1.271 cumulative IPC: 1.239 (Simulation time: 03 hr 04 min 15 sec)
Heartbeat CPU 1 instructions: 150000017 cycles: 361521122 heartbeat IPC: 0.3041 cumulative IPC: 0.2954 (Simulation time: 03 hr 04 min 48 sec)
Heartbeat CPU 0 instructions: 760000124 cycles: 362368695 heartbeat IPC: 1.964 cumulative IPC: 1.971 (Simulation time: 03 hr 05 min 13 sec)
Heartbeat CPU 3 instructions: 550000070 cycles: 365139608 heartbeat IPC: 1.384 cumulative IPC: 1.341 (Simulation time: 03 hr 06 min 32 sec)
Heartbeat CPU 0 instructions: 770000127 cycles: 367380780 heartbeat IPC: 1.995 cumulative IPC: 1.971 (Simulation time: 03 hr 07 min 38 sec)
Heartbeat CPU 2 instructions: 500000087 cycles: 368286835 heartbeat IPC: 1.264 cumulative IPC: 1.24 (Simulation time: 03 hr 08 min 04 sec)
Heartbeat CPU 3 instructions: 560000071 cycles: 372362236 heartbeat IPC: 1.385 cumulative IPC: 1.342 (Simulation time: 03 hr 10 min 03 sec)
Heartbeat CPU 0 instructions: 780000128 cycles: 372458033 heartbeat IPC: 1.97 cumulative IPC: 1.971 (Simulation time: 03 hr 10 min 05 sec)
Heartbeat CPU 2 instructions: 510000089 cycles: 376047746 heartbeat IPC: 1.289 cumulative IPC: 1.241 (Simulation time: 03 hr 11 min 50 sec)
Heartbeat CPU 0 instructions: 790000131 cycles: 377451660 heartbeat IPC: 2.003 cumulative IPC: 1.971 (Simulation time: 03 hr 12 min 30 sec)
Heartbeat CPU 3 instructions: 570000071 cycles: 379567578 heartbeat IPC: 1.388 cumulative IPC: 1.343 (Simulation time: 03 hr 13 min 31 sec)
Heartbeat CPU 0 instructions: 800000132 cycles: 382524595 heartbeat IPC: 1.971 cumulative IPC: 1.971 (Simulation time: 03 hr 14 min 57 sec)
Heartbeat CPU 2 instructions: 520000092 cycles: 383877602 heartbeat IPC: 1.277 cumulative IPC: 1.242 (Simulation time: 03 hr 15 min 37 sec)
Heartbeat CPU 3 instructions: 580000072 cycles: 386745935 heartbeat IPC: 1.393 cumulative IPC: 1.344 (Simulation time: 03 hr 17 min 01 sec)
Heartbeat CPU 0 instructions: 810000133 cycles: 387597193 heartbeat IPC: 1.971 cumulative IPC: 1.971 (Simulation time: 03 hr 17 min 25 sec)
Heartbeat CPU 2 instructions: 530000096 cycles: 391706256 heartbeat IPC: 1.277 cumulative IPC: 1.243 (Simulation time: 03 hr 19 min 25 sec)
Heartbeat CPU 0 instructions: 820000133 cycles: 392643490 heartbeat IPC: 1.982 cumulative IPC: 1.971 (Simulation time: 03 hr 19 min 52 sec)
Heartbeat CPU 3 instructions: 590000072 cycles: 393929771 heartbeat IPC: 1.392 cumulative IPC: 1.345 (Simulation time: 03 hr 20 min 29 sec)
Heartbeat CPU 1 instructions: 160000020 cycles: 394947714 heartbeat IPC: 0.2992 cumulative IPC: 0.2958 (Simulation time: 03 hr 20 min 59 sec)
Heartbeat CPU 0 instructions: 830000134 cycles: 397644915 heartbeat IPC: 1.999 cumulative IPC: 1.972 (Simulation time: 03 hr 22 min 17 sec)
Heartbeat CPU 2 instructions: 540000098 cycles: 399455432 heartbeat IPC: 1.29 cumulative IPC: 1.244 (Simulation time: 03 hr 23 min 10 sec)
Heartbeat CPU 3 instructions: 600000075 cycles: 401097441 heartbeat IPC: 1.395 cumulative IPC: 1.346 (Simulation time: 03 hr 23 min 58 sec)
Heartbeat CPU 0 instructions: 840000134 cycles: 402714369 heartbeat IPC: 1.973 cumulative IPC: 1.972 (Simulation time: 03 hr 24 min 46 sec)
Heartbeat CPU 2 instructions: 550000099 cycles: 407194151 heartbeat IPC: 1.292 cumulative IPC: 1.245 (Simulation time: 03 hr 26 min 56 sec)
Heartbeat CPU 0 instructions: 850000135 cycles: 407702555 heartbeat IPC: 2.005 cumulative IPC: 1.972 (Simulation time: 03 hr 27 min 11 sec)
Heartbeat CPU 3 instructions: 610000078 cycles: 408331937 heartbeat IPC: 1.382 cumulative IPC: 1.347 (Simulation time: 03 hr 27 min 29 sec)
Heartbeat CPU 0 instructions: 860000135 cycles: 412780890 heartbeat IPC: 1.969 cumulative IPC: 1.972 (Simulation time: 03 hr 29 min 39 sec)
Heartbeat CPU 2 instructions: 560000102 cycles: 414909408 heartbeat IPC: 1.296 cumulative IPC: 1.246 (Simulation time: 03 hr 30 min 41 sec)
Heartbeat CPU 3 instructions: 620000080 cycles: 415551142 heartbeat IPC: 1.385 cumulative IPC: 1.347 (Simulation time: 03 hr 30 min 59 sec)
Heartbeat CPU 0 instructions: 870000137 cycles: 417779365 heartbeat IPC: 2.001 cumulative IPC: 1.973 (Simulation time: 03 hr 32 min 04 sec)
Heartbeat CPU 2 instructions: 570000105 cycles: 422510251 heartbeat IPC: 1.316 cumulative IPC: 1.247 (Simulation time: 03 hr 34 min 22 sec)
Heartbeat CPU 3 instructions: 630000082 cycles: 422801036 heartbeat IPC: 1.379 cumulative IPC: 1.348 (Simulation time: 03 hr 34 min 31 sec)
Heartbeat CPU 0 instructions: 880000138 cycles: 422879972 heartbeat IPC: 1.961 cumulative IPC: 1.972 (Simulation time: 03 hr 34 min 33 sec)
Heartbeat CPU 1 instructions: 170000022 cycles: 427207382 heartbeat IPC: 0.31 cumulative IPC: 0.2969 (Simulation time: 03 hr 36 min 40 sec)
Heartbeat CPU 0 instructions: 890000138 cycles: 427885222 heartbeat IPC: 1.998 cumulative IPC: 1.973 (Simulation time: 03 hr 37 min 00 sec)
Heartbeat CPU 3 instructions: 640000086 cycles: 430079668 heartbeat IPC: 1.374 cumulative IPC: 1.348 (Simulation time: 03 hr 38 min 03 sec)
Heartbeat CPU 2 instructions: 580000108 cycles: 430304852 heartbeat IPC: 1.283 cumulative IPC: 1.248 (Simulation time: 03 hr 38 min 10 sec)
Heartbeat CPU 0 instructions: 900000139 cycles: 432962592 heartbeat IPC: 1.97 cumulative IPC: 1.973 (Simulation time: 03 hr 39 min 27 sec)
Heartbeat CPU 3 instructions: 650000088 cycles: 437313709 heartbeat IPC: 1.382 cumulative IPC: 1.349 (Simulation time: 03 hr 41 min 33 sec)
Heartbeat CPU 0 instructions: 910000143 cycles: 438103043 heartbeat IPC: 1.945 cumulative IPC: 1.972 (Simulation time: 03 hr 41 min 56 sec)
Heartbeat CPU 2 instructions: 590000109 cycles: 438526398 heartbeat IPC: 1.216 cumulative IPC: 1.247 (Simulation time: 03 hr 42 min 08 sec)
Heartbeat CPU 0 instructions: 920000143 cycles: 443093002 heartbeat IPC: 2.004 cumulative IPC: 1.973 (Simulation time: 03 hr 44 min 21 sec)
Heartbeat CPU 3 instructions: 660000092 cycles: 444515639 heartbeat IPC: 1.389 cumulative IPC: 1.35 (Simulation time: 03 hr 45 min 02 sec)
Heartbeat CPU 2 instructions: 600000112 cycles: 446424581 heartbeat IPC: 1.266 cumulative IPC: 1.247 (Simulation time: 03 hr 45 min 58 sec)
Heartbeat CPU 0 instructions: 930000146 cycles: 448098686 heartbeat IPC: 1.998 cumulative IPC: 1.973 (Simulation time: 03 hr 46 min 47 sec)
Heartbeat CPU 3 instructions: 670000095 cycles: 451722164 heartbeat IPC: 1.388 cumulative IPC: 1.35 (Simulation time: 03 hr 48 min 31 sec)
Heartbeat CPU 0 instructions: 940000149 cycles: 453232913 heartbeat IPC: 1.948 cumulative IPC: 1.973 (Simulation time: 03 hr 49 min 15 sec)
Heartbeat CPU 2 instructions: 610000115 cycles: 454573498 heartbeat IPC: 1.227 cumulative IPC: 1.247 (Simulation time: 03 hr 49 min 53 sec)
Heartbeat CPU 0 instructions: 950000150 cycles: 458428234 heartbeat IPC: 1.925 cumulative IPC: 1.972 (Simulation time: 03 hr 51 min 45 sec)
Heartbeat CPU 3 instructions: 680000095 cycles: 458952963 heartbeat IPC: 1.383 cumulative IPC: 1.351 (Simulation time: 03 hr 52 min 00 sec)
Heartbeat CPU 1 instructions: 180000022 cycles: 460021904 heartbeat IPC: 0.3047 cumulative IPC: 0.2975 (Simulation time: 03 hr 52 min 32 sec)
Heartbeat CPU 2 instructions: 620000119 cycles: 462477897 heartbeat IPC: 1.265 cumulative IPC: 1.247 (Simulation time: 03 hr 53 min 42 sec)
Heartbeat CPU 0 instructions: 960000154 cycles: 463527344 heartbeat IPC: 1.961 cumulative IPC: 1.972 (Simulation time: 03 hr 54 min 13 sec)
Heartbeat CPU 3 instructions: 690000097 cycles: 466168832 heartbeat IPC: 1.386 cumulative IPC: 1.351 (Simulation time: 03 hr 55 min 29 sec)
Heartbeat CPU 0 instructions: 970000154 cycles: 468630766 heartbeat IPC: 1.959 cumulative IPC: 1.972 (Simulation time: 03 hr 56 min 41 sec)
Heartbeat CPU 2 instructions: 630000119 cycles: 470367320 heartbeat IPC: 1.268 cumulative IPC: 1.248 (Simulation time: 03 hr 57 min 31 sec)
Heartbeat CPU 3 instructions: 700000099 cycles: 473399043 heartbeat IPC: 1.383 cumulative IPC: 1.352 (Simulation time: 03 hr 58 min 58 sec)
Heartbeat CPU 0 instructions: 980000155 cycles: 473961509 heartbeat IPC: 1.876 cumulative IPC: 1.971 (Simulation time: 03 hr 59 min 14 sec)
Heartbeat CPU 2 instructions: 640000123 cycles: 478191096 heartbeat IPC: 1.278 cumulative IPC: 1.248 (Simulation time: 04 hr 01 min 17 sec)
Heartbeat CPU 0 instructions: 990000158 cycles: 479044574 heartbeat IPC: 1.967 cumulative IPC: 1.971 (Simulation time: 04 hr 01 min 42 sec)
Heartbeat CPU 3 instructions: 710000099 cycles: 480594540 heartbeat IPC: 1.39 cumulative IPC: 1.352 (Simulation time: 04 hr 02 min 27 sec)
Heartbeat CPU 0 instructions: 1000000161 cycles: 484207611 heartbeat IPC: 1.937 cumulative IPC: 1.97 (Simulation time: 04 hr 04 min 12 sec)
Heartbeat CPU 2 instructions: 650000126 cycles: 486038700 heartbeat IPC: 1.274 cumulative IPC: 1.249 (Simulation time: 04 hr 05 min 05 sec)
Heartbeat CPU 3 instructions: 720000100 cycles: 487833486 heartbeat IPC: 1.381 cumulative IPC: 1.353 (Simulation time: 04 hr 05 min 57 sec)
Heartbeat CPU 0 instructions: 1010000161 cycles: 489321356 heartbeat IPC: 1.956 cumulative IPC: 1.97 (Simulation time: 04 hr 06 min 40 sec)
Heartbeat CPU 1 instructions: 190000026 cycles: 492639751 heartbeat IPC: 0.3066 cumulative IPC: 0.2981 (Simulation time: 04 hr 08 min 17 sec)
Heartbeat CPU 2 instructions: 660000128 cycles: 493828562 heartbeat IPC: 1.284 cumulative IPC: 1.249 (Simulation time: 04 hr 08 min 52 sec)
Heartbeat CPU 0 instructions: 1020000162 cycles: 494293062 heartbeat IPC: 2.011 cumulative IPC: 1.971 (Simulation time: 04 hr 09 min 06 sec)
Heartbeat CPU 3 instructions: 730000101 cycles: 495063210 heartbeat IPC: 1.383 cumulative IPC: 1.353 (Simulation time: 04 hr 09 min 28 sec)
Heartbeat CPU 0 instructions: 1030000163 cycles: 499302152 heartbeat IPC: 1.996 cumulative IPC: 1.971 (Simulation time: 04 hr 11 min 32 sec)
Heartbeat CPU 2 instructions: 670000132 cycles: 501312156 heartbeat IPC: 1.336 cumulative IPC: 1.251 (Simulation time: 04 hr 12 min 31 sec)
Heartbeat CPU 3 instructions: 740000103 cycles: 502302555 heartbeat IPC: 1.381 cumulative IPC: 1.354 (Simulation time: 04 hr 12 min 59 sec)
Heartbeat CPU 0 instructions: 1040000166 cycles: 504249006 heartbeat IPC: 2.021 cumulative IPC: 1.971 (Simulation time: 04 hr 13 min 56 sec)
Heartbeat CPU 2 instructions: 680000132 cycles: 508892171 heartbeat IPC: 1.319 cumulative IPC: 1.252 (Simulation time: 04 hr 16 min 12 sec)
Heartbeat CPU 0 instructions: 1050000167 cycles: 509108345 heartbeat IPC: 2.058 cumulative IPC: 1.972 (Simulation time: 04 hr 16 min 18 sec)
Heartbeat CPU 3 instructions: 750000103 cycles: 509563187 heartbeat IPC: 1.377 cumulative IPC: 1.354 (Simulation time: 04 hr 16 min 31 sec)
Heartbeat CPU 0 instructions: 1060000170 cycles: 513992404 heartbeat IPC: 2.047 cumulative IPC: 1.973 (Simulation time: 04 hr 18 min 40 sec)
Heartbeat CPU 3 instructions: 760000104 cycles: 516777079 heartbeat IPC: 1.386 cumulative IPC: 1.355 (Simulation time: 04 hr 20 min 01 sec)
Heartbeat CPU 2 instructions: 690000133 cycles: 516949209 heartbeat IPC: 1.241 cumulative IPC: 1.251 (Simulation time: 04 hr 20 min 06 sec)
Heartbeat CPU 0 instructions: 1070000174 cycles: 518895255 heartbeat IPC: 2.04 cumulative IPC: 1.974 (Simulation time: 04 hr 21 min 03 sec)
Heartbeat CPU 0 instructions: 1080000174 cycles: 523778205 heartbeat IPC: 2.048 cumulative IPC: 1.974 (Simulation time: 04 hr 23 min 24 sec)
Heartbeat CPU 3 instructions: 770000106 cycles: 523955771 heartbeat IPC: 1.393 cumulative IPC: 1.355 (Simulation time: 04 hr 23 min 30 sec)
Heartbeat CPU 1 instructions: 200000026 cycles: 524619154 heartbeat IPC: 0.3127 cumulative IPC: 0.2991 (Simulation time: 04 hr 23 min 49 sec)
Heartbeat CPU 2 instructions: 700000137 cycles: 524959845 heartbeat IPC: 1.248 cumulative IPC: 1.251 (Simulation time: 04 hr 23 min 59 sec)
Heartbeat CPU 0 instructions: 1090000178 cycles: 528645982 heartbeat IPC: 2.054 cumulative IPC: 1.975 (Simulation time: 04 hr 25 min 47 sec)
Heartbeat CPU 3 instructions: 780000106 cycles: 531201025 heartbeat IPC: 1.38 cumulative IPC: 1.356 (Simulation time: 04 hr 27 min 01 sec)
Heartbeat CPU 2 instructions: 710000141 cycles: 532662270 heartbeat IPC: 1.298 cumulative IPC: 1.252 (Simulation time: 04 hr 27 min 44 sec)
Heartbeat CPU 0 instructions: 1100000179 cycles: 533523912 heartbeat IPC: 2.05 cumulative IPC: 1.976 (Simulation time: 04 hr 28 min 09 sec)
Heartbeat CPU 3 instructions: 790000106 cycles: 538354908 heartbeat IPC: 1.398 cumulative IPC: 1.356 (Simulation time: 04 hr 30 min 30 sec)
Heartbeat CPU 0 instructions: 1110000179 cycles: 538417503 heartbeat IPC: 2.043 cumulative IPC: 1.977 (Simulation time: 04 hr 30 min 32 sec)
Heartbeat CPU 2 instructions: 720000142 cycles: 540220212 heartbeat IPC: 1.323 cumulative IPC: 1.253 (Simulation time: 04 hr 31 min 25 sec)
Heartbeat CPU 0 instructions: 1120000183 cycles: 543299401 heartbeat IPC: 2.048 cumulative IPC: 1.977 (Simulation time: 04 hr 32 min 55 sec)
Heartbeat CPU 3 instructions: 800000107 cycles: 545599207 heartbeat IPC: 1.38 cumulative IPC: 1.356 (Simulation time: 04 hr 34 min 02 sec)
Heartbeat CPU 2 instructions: 730000142 cycles: 547973745 heartbeat IPC: 1.29 cumulative IPC: 1.254 (Simulation time: 04 hr 35 min 12 sec)
Heartbeat CPU 0 instructions: 1130000185 cycles: 548213976 heartbeat IPC: 2.035 cumulative IPC: 1.978 (Simulation time: 04 hr 35 min 19 sec)
Heartbeat CPU 3 instructions: 810000108 cycles: 552771240 heartbeat IPC: 1.394 cumulative IPC: 1.357 (Simulation time: 04 hr 37 min 32 sec)
Heartbeat CPU 0 instructions: 1140000187 cycles: 553058984 heartbeat IPC: 2.064 cumulative IPC: 1.979 (Simulation time: 04 hr 37 min 41 sec)
Heartbeat CPU 2 instructions: 740000143 cycles: 555620008 heartbeat IPC: 1.308 cumulative IPC: 1.254 (Simulation time: 04 hr 38 min 55 sec)
Heartbeat CPU 1 instructions: 210000026 cycles: 556920917 heartbeat IPC: 0.3096 cumulative IPC: 0.2997 (Simulation time: 04 hr 39 min 33 sec)
Heartbeat CPU 0 instructions: 1150000187 cycles: 557833740 heartbeat IPC: 2.094 cumulative IPC: 1.98 (Simulation time: 04 hr 40 min 00 sec)
Heartbeat CPU 3 instructions: 820000109 cycles: 560010705 heartbeat IPC: 1.381 cumulative IPC: 1.357 (Simulation time: 04 hr 41 min 07 sec)
Heartbeat CPU 2 instructions: 750000146 cycles: 564000135 heartbeat IPC: 1.193 cumulative IPC: 1.254 (Simulation time: 04 hr 43 min 09 sec)
Heartbeat CPU 0 instructions: 1160000188 cycles: 565094562 heartbeat IPC: 1.377 cumulative IPC: 1.971 (Simulation time: 04 hr 43 min 42 sec)
Heartbeat CPU 3 instructions: 830000110 cycles: 567218365 heartbeat IPC: 1.387 cumulative IPC: 1.358 (Simulation time: 04 hr 44 min 44 sec)
Heartbeat CPU 0 instructions: 1170000189 cycles: 569996751 heartbeat IPC: 2.04 cumulative IPC: 1.972 (Simulation time: 04 hr 46 min 04 sec)
Heartbeat CPU 2 instructions: 760000149 cycles: 571871778 heartbeat IPC: 1.27 cumulative IPC: 1.254 (Simulation time: 04 hr 46 min 59 sec)
Heartbeat CPU 3 instructions: 840000113 cycles: 574398002 heartbeat IPC: 1.393 cumulative IPC: 1.358 (Simulation time: 04 hr 48 min 12 sec)
Heartbeat CPU 0 instructions: 1180000190 cycles: 574880178 heartbeat IPC: 2.048 cumulative IPC: 1.973 (Simulation time: 04 hr 48 min 26 sec)
Heartbeat CPU 0 instructions: 1190000192 cycles: 579771547 heartbeat IPC: 2.044 cumulative IPC: 1.973 (Simulation time: 04 hr 50 min 48 sec)
Heartbeat CPU 2 instructions: 770000153 cycles: 579820858 heartbeat IPC: 1.258 cumulative IPC: 1.254 (Simulation time: 04 hr 50 min 50 sec)
Heartbeat CPU 3 instructions: 850000113 cycles: 581632467 heartbeat IPC: 1.382 cumulative IPC: 1.358 (Simulation time: 04 hr 51 min 42 sec)
Heartbeat CPU 0 instructions: 1200000196 cycles: 584642343 heartbeat IPC: 2.053 cumulative IPC: 1.974 (Simulation time: 04 hr 53 min 11 sec)
Heartbeat CPU 2 instructions: 780000154 cycles: 587954064 heartbeat IPC: 1.23 cumulative IPC: 1.253 (Simulation time: 04 hr 54 min 47 sec)
Heartbeat CPU 3 instructions: 860000114 cycles: 588798859 heartbeat IPC: 1.395 cumulative IPC: 1.359 (Simulation time: 04 hr 55 min 12 sec)
Heartbeat CPU 0 instructions: 1210000200 cycles: 589518951 heartbeat IPC: 2.051 cumulative IPC: 1.975 (Simulation time: 04 hr 55 min 33 sec)
Heartbeat CPU 1 instructions: 220000029 cycles: 591026968 heartbeat IPC: 0.2932 cumulative IPC: 0.2993 (Simulation time: 04 hr 56 min 18 sec)
Heartbeat CPU 0 instructions: 1220000200 cycles: 594414952 heartbeat IPC: 2.042 cumulative IPC: 1.975 (Simulation time: 04 hr 57 min 57 sec)
Heartbeat CPU 2 instructions: 790000158 cycles: 595797899 heartbeat IPC: 1.275 cumulative IPC: 1.254 (Simulation time: 04 hr 58 min 37 sec)
Heartbeat CPU 3 instructions: 870000115 cycles: 596027386 heartbeat IPC: 1.383 cumulative IPC: 1.359 (Simulation time: 04 hr 58 min 43 sec)
Heartbeat CPU 0 instructions: 1230000201 cycles: 599285388 heartbeat IPC: 2.053 cumulative IPC: 1.976 (Simulation time: 05 hr 00 min 19 sec)
Heartbeat CPU 3 instructions: 880000115 cycles: 603238797 heartbeat IPC: 1.387 cumulative IPC: 1.36 (Simulation time: 05 hr 02 min 14 sec)
Heartbeat CPU 2 instructions: 800000162 cycles: 603586800 heartbeat IPC: 1.284 cumulative IPC: 1.254 (Simulation time: 05 hr 02 min 24 sec)
Heartbeat CPU 0 instructions: 1240000201 cycles: 604164807 heartbeat IPC: 2.049 cumulative IPC: 1.977 (Simulation time: 05 hr 02 min 41 sec)
Heartbeat CPU 0 instructions: 1250000203 cycles: 609063823 heartbeat IPC: 2.041 cumulative IPC: 1.977 (Simulation time: 05 hr 05 min 04 sec)
Heartbeat CPU 3 instructions: 890000116 cycles: 610403354 heartbeat IPC: 1.396 cumulative IPC: 1.36 (Simulation time: 05 hr 05 min 43 sec)
Heartbeat CPU 2 instructions: 810000164 cycles: 611453110 heartbeat IPC: 1.271 cumulative IPC: 1.254 (Simulation time: 05 hr 06 min 14 sec)
Heartbeat CPU 0 instructions: 1260000203 cycles: 613919724 heartbeat IPC: 2.059 cumulative IPC: 1.978 (Simulation time: 05 hr 07 min 26 sec)
Heartbeat CPU 3 instructions: 900000119 cycles: 617603178 heartbeat IPC: 1.389 cumulative IPC: 1.36 (Simulation time: 05 hr 09 min 13 sec)
Heartbeat CPU 0 instructions: 1270000204 cycles: 618782705 heartbeat IPC: 2.056 cumulative IPC: 1.978 (Simulation time: 05 hr 09 min 47 sec)
Heartbeat CPU 2 instructions: 820000164 cycles: 619086006 heartbeat IPC: 1.31 cumulative IPC: 1.255 (Simulation time: 05 hr 09 min 56 sec)
Heartbeat CPU 1 instructions: 230000031 cycles: 622470230 heartbeat IPC: 0.318 cumulative IPC: 0.3003 (Simulation time: 05 hr 11 min 35 sec)
Heartbeat CPU 0 instructions: 1280000208 cycles: 623645256 heartbeat IPC: 2.057 cumulative IPC: 1.979 (Simulation time: 05 hr 12 min 10 sec)
Heartbeat CPU 3 instructions: 910000119 cycles: 624748173 heartbeat IPC: 1.4 cumulative IPC: 1.361 (Simulation time: 05 hr 12 min 42 sec)
Heartbeat CPU 2 instructions: 830000166 cycles: 626803355 heartbeat IPC: 1.296 cumulative IPC: 1.256 (Simulation time: 05 hr 13 min 43 sec)
Heartbeat CPU 0 instructions: 1290000210 cycles: 628535727 heartbeat IPC: 2.045 cumulative IPC: 1.98 (Simulation time: 05 hr 14 min 35 sec)
Heartbeat CPU 3 instructions: 920000119 cycles: 631946231 heartbeat IPC: 1.389 cumulative IPC: 1.361 (Simulation time: 05 hr 16 min 14 sec)
Heartbeat CPU 0 instructions: 1300000210 cycles: 633468954 heartbeat IPC: 2.027 cumulative IPC: 1.98 (Simulation time: 05 hr 16 min 58 sec)
Heartbeat CPU 2 instructions: 840000166 cycles: 634320147 heartbeat IPC: 1.33 cumulative IPC: 1.257 (Simulation time: 05 hr 17 min 22 sec)
Heartbeat CPU 0 instructions: 1310000210 cycles: 638502331 heartbeat IPC: 1.987 cumulative IPC: 1.98 (Simulation time: 05 hr 19 min 24 sec)
Heartbeat CPU 3 instructions: 930000121 cycles: 639185904 heartbeat IPC: 1.381 cumulative IPC: 1.361 (Simulation time: 05 hr 19 min 44 sec)
Heartbeat CPU 2 instructions: 850000166 cycles: 642300239 heartbeat IPC: 1.253 cumulative IPC: 1.257 (Simulation time: 05 hr 21 min 14 sec)
Heartbeat CPU 0 instructions: 1320000214 cycles: 643506831 heartbeat IPC: 1.998 cumulative IPC: 1.98 (Simulation time: 05 hr 21 min 49 sec)
Heartbeat CPU 3 instructions: 940000122 cycles: 646364706 heartbeat IPC: 1.393 cumulative IPC: 1.362 (Simulation time: 05 hr 23 min 12 sec)
Heartbeat CPU 0 instructions: 1330000216 cycles: 648509428 heartbeat IPC: 1.999 cumulative IPC: 1.98 (Simulation time: 05 hr 24 min 15 sec)
Heartbeat CPU 2 instructions: 860000167 cycles: 650121054 heartbeat IPC: 1.279 cumulative IPC: 1.257 (Simulation time: 05 hr 25 min 02 sec)
Heartbeat CPU 0 instructions: 1340000217 cycles: 653585763 heartbeat IPC: 1.97 cumulative IPC: 1.98 (Simulation time: 05 hr 26 min 44 sec)
Heartbeat CPU 3 instructions: 950000125 cycles: 653629472 heartbeat IPC: 1.377 cumulative IPC: 1.362 (Simulation time: 05 hr 26 min 45 sec)
Heartbeat CPU 1 instructions: 240000031 cycles: 654907432 heartbeat IPC: 0.3083 cumulative IPC: 0.3007 (Simulation time: 05 hr 27 min 19 sec)
Heartbeat CPU 2 instructions: 870000168 cycles: 657830306 heartbeat IPC: 1.297 cumulative IPC: 1.257 (Simulation time: 05 hr 28 min 39 sec)
Heartbeat CPU 0 instructions: 1350000217 cycles: 658685050 heartbeat IPC: 1.961 cumulative IPC: 1.98 (Simulation time: 05 hr 29 min 02 sec)
Heartbeat CPU 0 instructions: 1360000219 cycles: 663751674 heartbeat IPC: 1.974 cumulative IPC: 1.98 (Simulation time: 05 hr 31 min 20 sec)
Heartbeat CPU 2 instructions: 880000168 cycles: 665909954 heartbeat IPC: 1.238 cumulative IPC: 1.257 (Simulation time: 05 hr 32 min 21 sec)
Heartbeat CPU 0 instructions: 1370000221 cycles: 669026599 heartbeat IPC: 1.896 cumulative IPC: 1.979 (Simulation time: 05 hr 33 min 51 sec)
Heartbeat CPU 3 instructions: 960000126 cycles: 670437564 heartbeat IPC: 0.595 cumulative IPC: 1.342 (Simulation time: 05 hr 34 min 32 sec)
Heartbeat CPU 2 instructions: 890000171 cycles: 673854361 heartbeat IPC: 1.259 cumulative IPC: 1.257 (Simulation time: 05 hr 36 min 12 sec)
Heartbeat CPU 0 instructions: 1380000221 cycles: 674121370 heartbeat IPC: 1.963 cumulative IPC: 1.979 (Simulation time: 05 hr 36 min 19 sec)
Heartbeat CPU 3 instructions: 970000130 cycles: 677728074 heartbeat IPC: 1.372 cumulative IPC: 1.342 (Simulation time: 05 hr 38 min 03 sec)
Heartbeat CPU 0 instructions: 1390000224 cycles: 679464585 heartbeat IPC: 1.872 cumulative IPC: 1.978 (Simulation time: 05 hr 38 min 53 sec)
Heartbeat CPU 2 instructions: 900000171 cycles: 681830765 heartbeat IPC: 1.254 cumulative IPC: 1.257 (Simulation time: 05 hr 40 min 02 sec)
Heartbeat CPU 0 instructions: 1400000227 cycles: 684585057 heartbeat IPC: 1.953 cumulative IPC: 1.978 (Simulation time: 05 hr 41 min 22 sec)
Heartbeat CPU 3 instructions: 980000130 cycles: 684953810 heartbeat IPC: 1.384 cumulative IPC: 1.343 (Simulation time: 05 hr 41 min 32 sec)
Heartbeat CPU 1 instructions: 250000035 cycles: 688658571 heartbeat IPC: 0.2963 cumulative IPC: 0.3005 (Simulation time: 05 hr 43 min 20 sec)
Heartbeat CPU 0 instructions: 1410000231 cycles: 689629511 heartbeat IPC: 1.982 cumulative IPC: 1.978 (Simulation time: 05 hr 43 min 49 sec)
Heartbeat CPU 2 instructions: 910000171 cycles: 689722593 heartbeat IPC: 1.267 cumulative IPC: 1.257 (Simulation time: 05 hr 43 min 51 sec)
Heartbeat CPU 3 instructions: 990000132 cycles: 692197948 heartbeat IPC: 1.38 cumulative IPC: 1.343 (Simulation time: 05 hr 45 min 04 sec)
Heartbeat CPU 0 instructions: 1420000234 cycles: 694752635 heartbeat IPC: 1.952 cumulative IPC: 1.978 (Simulation time: 05 hr 46 min 18 sec)
Heartbeat CPU 2 instructions: 920000171 cycles: 697506293 heartbeat IPC: 1.285 cumulative IPC: 1.257 (Simulation time: 05 hr 47 min 37 sec)
Heartbeat CPU 3 instructions: 1000000136 cycles: 699480268 heartbeat IPC: 1.373 cumulative IPC: 1.344 (Simulation time: 05 hr 48 min 35 sec)
Heartbeat CPU 0 instructions: 1430000236 cycles: 699814131 heartbeat IPC: 1.976 cumulative IPC: 1.978 (Simulation time: 05 hr 48 min 44 sec)
Heartbeat CPU 0 instructions: 1440000238 cycles: 705024223 heartbeat IPC: 1.919 cumulative IPC: 1.978 (Simulation time: 05 hr 51 min 16 sec)
Heartbeat CPU 2 instructions: 930000171 cycles: 705335490 heartbeat IPC: 1.277 cumulative IPC: 1.258 (Simulation time: 05 hr 51 min 25 sec)
Heartbeat CPU 3 instructions: 1010000137 cycles: 706729919 heartbeat IPC: 1.379 cumulative IPC: 1.344 (Simulation time: 05 hr 52 min 06 sec)
Heartbeat CPU 0 instructions: 1450000241 cycles: 710113330 heartbeat IPC: 1.965 cumulative IPC: 1.977 (Simulation time: 05 hr 53 min 44 sec)
Heartbeat CPU 2 instructions: 940000173 cycles: 712799132 heartbeat IPC: 1.34 cumulative IPC: 1.259 (Simulation time: 05 hr 55 min 02 sec)
Heartbeat CPU 3 instructions: 1020000138 cycles: 713939551 heartbeat IPC: 1.387 cumulative IPC: 1.344 (Simulation time: 05 hr 55 min 36 sec)
Heartbeat CPU 0 instructions: 1460000242 cycles: 715198712 heartbeat IPC: 1.966 cumulative IPC: 1.977 (Simulation time: 05 hr 56 min 13 sec)
Heartbeat CPU 0 instructions: 1470000243 cycles: 720255697 heartbeat IPC: 1.977 cumulative IPC: 1.977 (Simulation time: 05 hr 58 min 40 sec)
Heartbeat CPU 2 instructions: 950000173 cycles: 720416962 heartbeat IPC: 1.313 cumulative IPC: 1.259 (Simulation time: 05 hr 58 min 45 sec)
Heartbeat CPU 3 instructions: 1030000142 cycles: 721216282 heartbeat IPC: 1.374 cumulative IPC: 1.345 (Simulation time: 05 hr 59 min 08 sec)
Heartbeat CPU 1 instructions: 260000036 cycles: 721278005 heartbeat IPC: 0.3066 cumulative IPC: 0.3008 (Simulation time: 05 hr 59 min 10 sec)
Heartbeat CPU 0 instructions: 1480000243 cycles: 725448089 heartbeat IPC: 1.926 cumulative IPC: 1.977 (Simulation time: 06 hr 01 min 11 sec)
Heartbeat CPU 2 instructions: 960000176 cycles: 728064459 heartbeat IPC: 1.308 cumulative IPC: 1.26 (Simulation time: 06 hr 02 min 27 sec)
Heartbeat CPU 3 instructions: 1040000144 cycles: 728424022 heartbeat IPC: 1.387 cumulative IPC: 1.345 (Simulation time: 06 hr 02 min 38 sec)
Heartbeat CPU 0 instructions: 1490000247 cycles: 730478496 heartbeat IPC: 1.988 cumulative IPC: 1.977 (Simulation time: 06 hr 03 min 38 sec)
Heartbeat CPU 0 instructions: 1500000250 cycles: 735547133 heartbeat IPC: 1.973 cumulative IPC: 1.977 (Simulation time: 06 hr 06 min 05 sec)
Heartbeat CPU 3 instructions: 1050000144 cycles: 735646632 heartbeat IPC: 1.385 cumulative IPC: 1.346 (Simulation time: 06 hr 06 min 08 sec)
Heartbeat CPU 2 instructions: 970000176 cycles: 735910295 heartbeat IPC: 1.275 cumulative IPC: 1.26 (Simulation time: 06 hr 06 min 15 sec)
Heartbeat CPU 0 instructions: 1510000250 cycles: 740586970 heartbeat IPC: 1.984 cumulative IPC: 1.977 (Simulation time: 06 hr 08 min 31 sec)
Heartbeat CPU 3 instructions: 1060000148 cycles: 742870225 heartbeat IPC: 1.384 cumulative IPC: 1.346 (Simulation time: 06 hr 09 min 37 sec)
Heartbeat CPU 2 instructions: 980000177 cycles: 743786963 heartbeat IPC: 1.27 cumulative IPC: 1.26 (Simulation time: 06 hr 10 min 03 sec)
Heartbeat CPU 0 instructions: 1520000254 cycles: 745664093 heartbeat IPC: 1.97 cumulative IPC: 1.977 (Simulation time: 06 hr 10 min 58 sec)
Heartbeat CPU 3 instructions: 1070000150 cycles: 750063043 heartbeat IPC: 1.39 cumulative IPC: 1.346 (Simulation time: 06 hr 13 min 06 sec)
Heartbeat CPU 0 instructions: 1530000254 cycles: 750700807 heartbeat IPC: 1.985 cumulative IPC: 1.977 (Simulation time: 06 hr 13 min 25 sec)
Heartbeat CPU 2 instructions: 990000181 cycles: 751388817 heartbeat IPC: 1.315 cumulative IPC: 1.261 (Simulation time: 06 hr 13 min 45 sec)
Heartbeat CPU 1 instructions: 270000036 cycles: 754698086 heartbeat IPC: 0.2992 cumulative IPC: 0.3007 (Simulation time: 06 hr 15 min 21 sec)
Heartbeat CPU 0 instructions: 1540000255 cycles: 755754138 heartbeat IPC: 1.979 cumulative IPC: 1.977 (Simulation time: 06 hr 15 min 51 sec)
Heartbeat CPU 3 instructions: 1080000150 cycles: 757312530 heartbeat IPC: 1.379 cumulative IPC: 1.347 (Simulation time: 06 hr 16 min 36 sec)
Heartbeat CPU 2 instructions: 1000000184 cycles: 759663509 heartbeat IPC: 1.209 cumulative IPC: 1.26 (Simulation time: 06 hr 17 min 44 sec)
Heartbeat CPU 0 instructions: 1550000258 cycles: 760908182 heartbeat IPC: 1.94 cumulative IPC: 1.977 (Simulation time: 06 hr 18 min 19 sec)
Heartbeat CPU 3 instructions: 1090000150 cycles: 764519261 heartbeat IPC: 1.388 cumulative IPC: 1.347 (Simulation time: 06 hr 20 min 05 sec)
Heartbeat CPU 0 instructions: 1560000260 cycles: 766005298 heartbeat IPC: 1.962 cumulative IPC: 1.977 (Simulation time: 06 hr 20 min 48 sec)
Heartbeat CPU 2 instructions: 1010000188 cycles: 767543825 heartbeat IPC: 1.269 cumulative IPC: 1.26 (Simulation time: 06 hr 21 min 33 sec)
Heartbeat CPU 0 instructions: 1570000260 cycles: 771056562 heartbeat IPC: 1.98 cumulative IPC: 1.977 (Simulation time: 06 hr 23 min 14 sec)
Heartbeat CPU 3 instructions: 1100000152 cycles: 771744458 heartbeat IPC: 1.384 cumulative IPC: 1.347 (Simulation time: 06 hr 23 min 35 sec)
Heartbeat CPU 2 instructions: 1020000189 cycles: 775468262 heartbeat IPC: 1.262 cumulative IPC: 1.26 (Simulation time: 06 hr 25 min 22 sec)
Heartbeat CPU 0 instructions: 1580000263 cycles: 776102234 heartbeat IPC: 1.982 cumulative IPC: 1.977 (Simulation time: 06 hr 25 min 41 sec)
Heartbeat CPU 3 instructions: 1110000153 cycles: 779003110 heartbeat IPC: 1.378 cumulative IPC: 1.348 (Simulation time: 06 hr 27 min 05 sec)
Heartbeat CPU 0 instructions: 1590000263 cycles: 781169205 heartbeat IPC: 1.974 cumulative IPC: 1.977 (Simulation time: 06 hr 28 min 07 sec)
Heartbeat CPU 2 instructions: 1030000190 cycles: 783512723 heartbeat IPC: 1.243 cumulative IPC: 1.26 (Simulation time: 06 hr 29 min 15 sec)
Heartbeat CPU 3 instructions: 1120000155 cycles: 786218915 heartbeat IPC: 1.386 cumulative IPC: 1.348 (Simulation time: 06 hr 30 min 34 sec)
Heartbeat CPU 0 instructions: 1600000264 cycles: 786261783 heartbeat IPC: 1.964 cumulative IPC: 1.977 (Simulation time: 06 hr 30 min 35 sec)
Heartbeat CPU 1 instructions: 280000037 cycles: 788134325 heartbeat IPC: 0.2991 cumulative IPC: 0.3006 (Simulation time: 06 hr 31 min 29 sec)
Heartbeat CPU 2 instructions: 1040000190 cycles: 791423049 heartbeat IPC: 1.264 cumulative IPC: 1.26 (Simulation time: 06 hr 33 min 04 sec)
Heartbeat CPU 0 instructions: 1610000268 cycles: 791527488 heartbeat IPC: 1.899 cumulative IPC: 1.976 (Simulation time: 06 hr 33 min 07 sec)
Heartbeat CPU 3 instructions: 1130000155 cycles: 793468978 heartbeat IPC: 1.379 cumulative IPC: 1.348 (Simulation time: 06 hr 34 min 03 sec)
Heartbeat CPU 0 instructions: 1620000268 cycles: 796588034 heartbeat IPC: 1.976 cumulative IPC: 1.976 (Simulation time: 06 hr 35 min 34 sec)
Heartbeat CPU 2 instructions: 1050000191 cycles: 799196988 heartbeat IPC: 1.286 cumulative IPC: 1.26 (Simulation time: 06 hr 36 min 49 sec)
Heartbeat CPU 3 instructions: 1140000156 cycles: 800692717 heartbeat IPC: 1.384 cumulative IPC: 1.349 (Simulation time: 06 hr 37 min 32 sec)
Heartbeat CPU 0 instructions: 1630000268 cycles: 801668243 heartbeat IPC: 1.968 cumulative IPC: 1.976 (Simulation time: 06 hr 38 min 00 sec)
Heartbeat CPU 0 instructions: 1640000270 cycles: 806750990 heartbeat IPC: 1.967 cumulative IPC: 1.976 (Simulation time: 06 hr 40 min 27 sec)
Heartbeat CPU 2 instructions: 1060000193 cycles: 807167346 heartbeat IPC: 1.255 cumulative IPC: 1.26 (Simulation time: 06 hr 40 min 39 sec)
Heartbeat CPU 3 instructions: 1150000156 cycles: 807905063 heartbeat IPC: 1.387 cumulative IPC: 1.349 (Simulation time: 06 hr 41 min 00 sec)
Heartbeat CPU 0 instructions: 1650000270 cycles: 811946751 heartbeat IPC: 1.925 cumulative IPC: 1.976 (Simulation time: 06 hr 42 min 57 sec)
Heartbeat CPU 2 instructions: 1070000193 cycles: 815017713 heartbeat IPC: 1.274 cumulative IPC: 1.26 (Simulation time: 06 hr 44 min 26 sec)
Heartbeat CPU 3 instructions: 1160000156 cycles: 815233135 heartbeat IPC: 1.365 cumulative IPC: 1.349 (Simulation time: 06 hr 44 min 32 sec)
Heartbeat CPU 0 instructions: 1660000272 cycles: 817117044 heartbeat IPC: 1.934 cumulative IPC: 1.975 (Simulation time: 06 hr 45 min 26 sec)
Heartbeat CPU 1 instructions: 290000041 cycles: 821334967 heartbeat IPC: 0.3012 cumulative IPC: 0.3006 (Simulation time: 06 hr 47 min 27 sec)
Heartbeat CPU 0 instructions: 1670000272 cycles: 822242731 heartbeat IPC: 1.951 cumulative IPC: 1.975 (Simulation time: 06 hr 47 min 53 sec)
Heartbeat CPU 3 instructions: 1170000158 cycles: 822432684 heartbeat IPC: 1.389 cumulative IPC: 1.35 (Simulation time: 06 hr 47 min 59 sec)
Heartbeat CPU 2 instructions: 1080000196 cycles: 822900290 heartbeat IPC: 1.269 cumulative IPC: 1.26 (Simulation time: 06 hr 48 min 12 sec)
Heartbeat CPU 0 instructions: 1680000275 cycles: 827545070 heartbeat IPC: 1.886 cumulative IPC: 1.975 (Simulation time: 06 hr 50 min 26 sec)
Heartbeat CPU 3 instructions: 1180000159 cycles: 829734609 heartbeat IPC: 1.37 cumulative IPC: 1.35 (Simulation time: 06 hr 51 min 30 sec)
Heartbeat CPU 2 instructions: 1090000198 cycles: 830857038 heartbeat IPC: 1.257 cumulative IPC: 1.26 (Simulation time: 06 hr 52 min 02 sec)
Heartbeat CPU 0 instructions: 1690000275 cycles: 832674332 heartbeat IPC: 1.95 cumulative IPC: 1.975 (Simulation time: 06 hr 52 min 54 sec)
Heartbeat CPU 3 instructions: 1190000159 cycles: 837008100 heartbeat IPC: 1.375 cumulative IPC: 1.35 (Simulation time: 06 hr 55 min 01 sec)
Heartbeat CPU 0 instructions: 1700000277 cycles: 837819114 heartbeat IPC: 1.944 cumulative IPC: 1.974 (Simulation time: 06 hr 55 min 24 sec)
Heartbeat CPU 2 instructions: 1100000198 cycles: 838659256 heartbeat IPC: 1.282 cumulative IPC: 1.261 (Simulation time: 06 hr 55 min 48 sec)
Heartbeat CPU 0 instructions: 1710000280 cycles: 842933215 heartbeat IPC: 1.955 cumulative IPC: 1.974 (Simulation time: 06 hr 57 min 52 sec)
Heartbeat CPU 3 instructions: 1200000159 cycles: 844234214 heartbeat IPC: 1.384 cumulative IPC: 1.35 (Simulation time: 06 hr 58 min 30 sec)
Heartbeat CPU 2 instructions: 1110000202 cycles: 846672436 heartbeat IPC: 1.248 cumulative IPC: 1.26 (Simulation time: 06 hr 59 min 40 sec)
Heartbeat CPU 0 instructions: 1720000283 cycles: 847945584 heartbeat IPC: 1.995 cumulative IPC: 1.974 (Simulation time: 07 hr 00 min 17 sec)
Heartbeat CPU 3 instructions: 1210000160 cycles: 851483973 heartbeat IPC: 1.379 cumulative IPC: 1.351 (Simulation time: 07 hr 01 min 59 sec)
Heartbeat CPU 0 instructions: 1730000284 cycles: 852919858 heartbeat IPC: 2.01 cumulative IPC: 1.975 (Simulation time: 07 hr 02 min 40 sec)
Simulation finished CPU 1 instructions: 250000004 cycles: 830985514 cumulative IPC: 0.3008 (Simulation time: 07 hr 03 min 12 sec)
Simulation complete CPU 3 instructions: 1122354040 cycles: 830985514 cumulative IPC: 1.351 (Simulation time: 07 hr 03 min 12 sec)
Simulation complete CPU 2 instructions: 1047343014 cycles: 830985514 cumulative IPC: 1.26 (Simulation time: 07 hr 03 min 12 sec)
Simulation complete CPU 1 instructions: 250000004 cycles: 830985514 cumulative IPC: 0.3008 (Simulation time: 07 hr 03 min 12 sec)
Simulation complete CPU 0 instructions: 1640718101 cycles: 830985514 cumulative IPC: 1.974 (Simulation time: 07 hr 03 min 12 sec)

ChampSim completed all CPUs

=== Simulation ===
CPU 0 runs /home/faculty/p/pgratz/dpc3_traces/603.bwaves_s-3699B.champsimtrace.xz
CPU 1 runs /home/faculty/p/pgratz/dpc3_traces/620.omnetpp_s-874B.champsimtrace.xz
CPU 2 runs /home/faculty/p/pgratz/dpc3_traces/631.deepsjeng_s-928B.champsimtrace.xz
CPU 3 runs /home/faculty/p/pgratz/dpc3_traces/641.leela_s-800B.champsimtrace.xz

Total Simulation Statistics (not including warmup)

CPU 3 cumulative IPC: 1.351 instructions: 1122354040 cycles: 830985514
CPU 3 Branch Prediction Accuracy: 86.95% MPKI: 21.35 Average ROB Occupancy at Mispredict: 20.82
Branch type MPKI
BRANCH_DIRECT_JUMP: 0.07465
BRANCH_INDIRECT: 0.0007422
BRANCH_CONDITIONAL: 21.24
BRANCH_DIRECT_CALL: 0.0001381
BRANCH_INDIRECT_CALL: 2.495e-05
BRANCH_RETURN: 0.02658


CPU 2 cumulative IPC: 1.26 instructions: 1047343014 cycles: 830985514
CPU 2 Branch Prediction Accuracy: 89.72% MPKI: 15.2 Average ROB Occupancy at Mispredict: 32.42
Branch type MPKI
BRANCH_DIRECT_JUMP: 0.02013
BRANCH_INDIRECT: 0.009483
BRANCH_CONDITIONAL: 14.68
BRANCH_DIRECT_CALL: 0.01849
BRANCH_INDIRECT_CALL: 0
BRANCH_RETURN: 0.4675


CPU 1 cumulative IPC: 0.3008 instructions: 250000004 cycles: 830985514
CPU 1 Branch Prediction Accuracy: 94.15% MPKI: 12.17 Average ROB Occupancy at Mispredict: 52.67
Branch type MPKI
BRANCH_DIRECT_JUMP: 0.9272
BRANCH_INDIRECT: 0.125
BRANCH_CONDITIONAL: 9.994
BRANCH_DIRECT_CALL: 0.000104
BRANCH_INDIRECT_CALL: 0.7322
BRANCH_RETURN: 0.3962


CPU 0 cumulative IPC: 1.974 instructions: 1640718101 cycles: 830985514
CPU 0 Branch Prediction Accuracy: 86.53% MPKI: 19.63 Average ROB Occupancy at Mispredict: 30.61
Branch type MPKI
BRANCH_DIRECT_JUMP: 0.05943
BRANCH_INDIRECT: 0
BRANCH_CONDITIONAL: 19.5
BRANCH_DIRECT_CALL: 0
BRANCH_INDIRECT_CALL: 0
BRANCH_RETURN: 0.0659

cpu3->cpu3_STLB TOTAL        ACCESS:     451983 HIT:     450174 MISS:       1809 MSHR_MERGE:          0
cpu3->cpu3_STLB LOAD         ACCESS:     451983 HIT:     450174 MISS:       1809 MSHR_MERGE:          0
cpu3->cpu3_STLB RFO          ACCESS:          0 HIT:          0 MISS:          0 MSHR_MERGE:          0
cpu3->cpu3_STLB PREFETCH     ACCESS:          0 HIT:          0 MISS:          0 MSHR_MERGE:          0
cpu3->cpu3_STLB WRITE        ACCESS:          0 HIT:          0 MISS:          0 MSHR_MERGE:          0
cpu3->cpu3_STLB TRANSLATION  ACCESS:          0 HIT:          0 MISS:          0 MSHR_MERGE:          0
cpu3->cpu3_STLB PREFETCH REQUESTED:          0 ISSUED:          0 USEFUL:          0 USELESS:          0
cpu3->cpu3_STLB AVERAGE MISS LATENCY: 686.2 cycles
cpu3->cpu3_L2C TOTAL        ACCESS:    3152617 HIT:    2988968 MISS:     163649 MSHR_MERGE:          0
cpu3->cpu3_L2C LOAD         ACCESS:    2318942 HIT:    2227000 MISS:      91942 MSHR_MERGE:          0
cpu3->cpu3_L2C RFO          ACCESS:     305574 HIT:     236727 MISS:      68847 MSHR_MERGE:          0
cpu3->cpu3_L2C PREFETCH     ACCESS:          0 HIT:          0 MISS:          0 MSHR_MERGE:          0
cpu3->cpu3_L2C WRITE        ACCESS:     525231 HIT:     525208 MISS:         23 MSHR_MERGE:          0
cpu3->cpu3_L2C TRANSLATION  ACCESS:       2870 HIT:         33 MISS:       2837 MSHR_MERGE:          0
cpu3->cpu3_L2C PREFETCH REQUESTED:          0 ISSUED:          0 USEFUL:          0 USELESS:          0
cpu3->cpu3_L2C AVERAGE MISS LATENCY: 257.2 cycles
cpu3->cpu3_L1I TOTAL        ACCESS:  114145722 HIT:  114031619 MISS:     114103 MSHR_MERGE:      49715
cpu3->cpu3_L1I LOAD         ACCESS:  114145722 HIT:  114031619 MISS:     114103 MSHR_MERGE:      49715
cpu3->cpu3_L1I RFO          ACCESS:          0 HIT:          0 MISS:          0 MSHR_MERGE:          0
cpu3->cpu3_L1I PREFETCH     ACCESS:          0 HIT:          0 MISS:          0 MSHR_MERGE:          0
cpu3->cpu3_L1I WRITE        ACCESS:          0 HIT:          0 MISS:          0 MSHR_MERGE:          0
cpu3->cpu3_L1I TRANSLATION  ACCESS:          0 HIT:          0 MISS:          0 MSHR_MERGE:          0
cpu3->cpu3_L1I PREFETCH REQUESTED:          0 ISSUED:          0 USEFUL:          0 USELESS:          0
cpu3->cpu3_L1I AVERAGE MISS LATENCY: 13.85 cycles
cpu3->cpu3_L1D TOTAL        ACCESS:  328231943 HIT:  324719993 MISS:    3511950 MSHR_MERGE:     948942
cpu3->cpu3_L1D LOAD         ACCESS:  201341296 HIT:  198813094 MISS:    2528202 MSHR_MERGE:     273646
cpu3->cpu3_L1D RFO          ACCESS:          0 HIT:          0 MISS:          0 MSHR_MERGE:          0
cpu3->cpu3_L1D PREFETCH     ACCESS:          0 HIT:          0 MISS:          0 MSHR_MERGE:          0
cpu3->cpu3_L1D WRITE        ACCESS:  126887027 HIT:  125906152 MISS:     980875 MSHR_MERGE:     675293
cpu3->cpu3_L1D TRANSLATION  ACCESS:       3620 HIT:        747 MISS:       2873 MSHR_MERGE:          3
cpu3->cpu3_L1D PREFETCH REQUESTED:          0 ISSUED:          0 USEFUL:          0 USELESS:          0
cpu3->cpu3_L1D AVERAGE MISS LATENCY: 24.33 cycles
cpu3->cpu3_ITLB TOTAL        ACCESS:   94240293 HIT:   94240138 MISS:        155 MSHR_MERGE:         76
cpu3->cpu3_ITLB LOAD         ACCESS:   94240293 HIT:   94240138 MISS:        155 MSHR_MERGE:         76
cpu3->cpu3_ITLB RFO          ACCESS:          0 HIT:          0 MISS:          0 MSHR_MERGE:          0
cpu3->cpu3_ITLB PREFETCH     ACCESS:          0 HIT:          0 MISS:          0 MSHR_MERGE:          0
cpu3->cpu3_ITLB WRITE        ACCESS:          0 HIT:          0 MISS:          0 MSHR_MERGE:          0
cpu3->cpu3_ITLB TRANSLATION  ACCESS:          0 HIT:          0 MISS:          0 MSHR_MERGE:          0
cpu3->cpu3_ITLB PREFETCH REQUESTED:          0 ISSUED:          0 USEFUL:          0 USELESS:          0
cpu3->cpu3_ITLB AVERAGE MISS LATENCY: 596.1 cycles
cpu3->cpu3_DTLB TOTAL        ACCESS:  298511946 HIT:  297991206 MISS:     520740 MSHR_MERGE:      68836
cpu3->cpu3_DTLB LOAD         ACCESS:  298511946 HIT:  297991206 MISS:     520740 MSHR_MERGE:      68836
cpu3->cpu3_DTLB RFO          ACCESS:          0 HIT:          0 MISS:          0 MSHR_MERGE:          0
cpu3->cpu3_DTLB PREFETCH     ACCESS:          0 HIT:          0 MISS:          0 MSHR_MERGE:          0
cpu3->cpu3_DTLB WRITE        ACCESS:          0 HIT:          0 MISS:          0 MSHR_MERGE:          0
cpu3->cpu3_DTLB TRANSLATION  ACCESS:          0 HIT:          0 MISS:          0 MSHR_MERGE:          0
cpu3->cpu3_DTLB PREFETCH REQUESTED:          0 ISSUED:          0 USEFUL:          0 USELESS:          0
cpu3->cpu3_DTLB AVERAGE MISS LATENCY: 7.474 cycles
cpu2->cpu2_STLB TOTAL        ACCESS:     274746 HIT:      94888 MISS:     179858 MSHR_MERGE:          0
cpu2->cpu2_STLB LOAD         ACCESS:     274746 HIT:      94888 MISS:     179858 MSHR_MERGE:          0
cpu2->cpu2_STLB RFO          ACCESS:          0 HIT:          0 MISS:          0 MSHR_MERGE:          0
cpu2->cpu2_STLB PREFETCH     ACCESS:          0 HIT:          0 MISS:          0 MSHR_MERGE:          0
cpu2->cpu2_STLB WRITE        ACCESS:          0 HIT:          0 MISS:          0 MSHR_MERGE:          0
cpu2->cpu2_STLB TRANSLATION  ACCESS:          0 HIT:          0 MISS:          0 MSHR_MERGE:          0
cpu2->cpu2_STLB PREFETCH REQUESTED:          0 ISSUED:          0 USEFUL:          0 USELESS:          0
cpu2->cpu2_STLB AVERAGE MISS LATENCY: 928.4 cycles
cpu2->cpu2_L2C TOTAL        ACCESS:    2934824 HIT:    2152795 MISS:     782029 MSHR_MERGE:          0
cpu2->cpu2_L2C LOAD         ACCESS:    1596738 HIT:    1291073 MISS:     305665 MSHR_MERGE:          0
cpu2->cpu2_L2C RFO          ACCESS:     282305 HIT:     264249 MISS:      18056 MSHR_MERGE:          0
cpu2->cpu2_L2C PREFETCH     ACCESS:          0 HIT:          0 MISS:          0 MSHR_MERGE:          0
cpu2->cpu2_L2C WRITE        ACCESS:     528202 HIT:     526552 MISS:       1650 MSHR_MERGE:          0
cpu2->cpu2_L2C TRANSLATION  ACCESS:     527579 HIT:      70921 MISS:     456658 MSHR_MERGE:          0
cpu2->cpu2_L2C PREFETCH REQUESTED:          0 ISSUED:          0 USEFUL:          0 USELESS:          0
cpu2->cpu2_L2C AVERAGE MISS LATENCY: 213 cycles
cpu2->cpu2_L1I TOTAL        ACCESS:  122013241 HIT:  120772613 MISS:    1240628 MSHR_MERGE:     267888
cpu2->cpu2_L1I LOAD         ACCESS:  122013241 HIT:  120772613 MISS:    1240628 MSHR_MERGE:     267888
cpu2->cpu2_L1I RFO          ACCESS:          0 HIT:          0 MISS:          0 MSHR_MERGE:          0
cpu2->cpu2_L1I PREFETCH     ACCESS:          0 HIT:          0 MISS:          0 MSHR_MERGE:          0
cpu2->cpu2_L1I WRITE        ACCESS:          0 HIT:          0 MISS:          0 MSHR_MERGE:          0
cpu2->cpu2_L1I TRANSLATION  ACCESS:          0 HIT:          0 MISS:          0 MSHR_MERGE:          0
cpu2->cpu2_L1I PREFETCH REQUESTED:          0 ISSUED:          0 USEFUL:          0 USELESS:          0
cpu2->cpu2_L1I AVERAGE MISS LATENCY: 8.416 cycles
cpu2->cpu2_L1D TOTAL        ACCESS:  314744467 HIT:  312630884 MISS:    2113583 MSHR_MERGE:     679684
cpu2->cpu2_L1D LOAD         ACCESS:  190326914 HIT:  189495636 MISS:     831278 MSHR_MERGE:     207265
cpu2->cpu2_L1D RFO          ACCESS:          0 HIT:          0 MISS:          0 MSHR_MERGE:          0
cpu2->cpu2_L1D PREFETCH     ACCESS:          0 HIT:          0 MISS:          0 MSHR_MERGE:          0
cpu2->cpu2_L1D WRITE        ACCESS:  123876263 HIT:  123122746 MISS:     753517 MSHR_MERGE:     471210
cpu2->cpu2_L1D TRANSLATION  ACCESS:     541290 HIT:      12502 MISS:     528788 MSHR_MERGE:       1209
cpu2->cpu2_L1D PREFETCH REQUESTED:          0 ISSUED:          0 USEFUL:          0 USELESS:          0
cpu2->cpu2_L1D AVERAGE MISS LATENCY: 123.8 cycles
cpu2->cpu2_ITLB TOTAL        ACCESS:  103626966 HIT:  103626966 MISS:          0 MSHR_MERGE:          0
cpu2->cpu2_ITLB LOAD         ACCESS:  103626966 HIT:  103626966 MISS:          0 MSHR_MERGE:          0
cpu2->cpu2_ITLB RFO          ACCESS:          0 HIT:          0 MISS:          0 MSHR_MERGE:          0
cpu2->cpu2_ITLB PREFETCH     ACCESS:          0 HIT:          0 MISS:          0 MSHR_MERGE:          0
cpu2->cpu2_ITLB WRITE        ACCESS:          0 HIT:          0 MISS:          0 MSHR_MERGE:          0
cpu2->cpu2_ITLB TRANSLATION  ACCESS:          0 HIT:          0 MISS:          0 MSHR_MERGE:          0
cpu2->cpu2_ITLB PREFETCH REQUESTED:          0 ISSUED:          0 USEFUL:          0 USELESS:          0
cpu2->cpu2_ITLB AVERAGE MISS LATENCY: - cycles
cpu2->cpu2_DTLB TOTAL        ACCESS:  276206717 HIT:  275701613 MISS:     505104 MSHR_MERGE:     230358
cpu2->cpu2_DTLB LOAD         ACCESS:  276206717 HIT:  275701613 MISS:     505104 MSHR_MERGE:     230358
cpu2->cpu2_DTLB RFO          ACCESS:          0 HIT:          0 MISS:          0 MSHR_MERGE:          0
cpu2->cpu2_DTLB PREFETCH     ACCESS:          0 HIT:          0 MISS:          0 MSHR_MERGE:          0
cpu2->cpu2_DTLB WRITE        ACCESS:          0 HIT:          0 MISS:          0 MSHR_MERGE:          0
cpu2->cpu2_DTLB TRANSLATION  ACCESS:          0 HIT:          0 MISS:          0 MSHR_MERGE:          0
cpu2->cpu2_DTLB PREFETCH REQUESTED:          0 ISSUED:          0 USEFUL:          0 USELESS:          0
cpu2->cpu2_DTLB AVERAGE MISS LATENCY: 613.4 cycles
cpu1->cpu1_STLB TOTAL        ACCESS:    5156834 HIT:    4086533 MISS:    1070301 MSHR_MERGE:          0
cpu1->cpu1_STLB LOAD         ACCESS:    5156834 HIT:    4086533 MISS:    1070301 MSHR_MERGE:          0
cpu1->cpu1_STLB RFO          ACCESS:          0 HIT:          0 MISS:          0 MSHR_MERGE:          0
cpu1->cpu1_STLB PREFETCH     ACCESS:          0 HIT:          0 MISS:          0 MSHR_MERGE:          0
cpu1->cpu1_STLB WRITE        ACCESS:          0 HIT:          0 MISS:          0 MSHR_MERGE:          0
cpu1->cpu1_STLB TRANSLATION  ACCESS:          0 HIT:          0 MISS:          0 MSHR_MERGE:          0
cpu1->cpu1_STLB PREFETCH REQUESTED:          0 ISSUED:          0 USEFUL:          0 USELESS:          0
cpu1->cpu1_STLB AVERAGE MISS LATENCY: 332.6 cycles
cpu1->cpu1_L2C TOTAL        ACCESS:    9677437 HIT:    4496553 MISS:    5180884 MSHR_MERGE:          0
cpu1->cpu1_L2C LOAD         ACCESS:    4311882 HIT:    1404291 MISS:    2907591 MSHR_MERGE:          0
cpu1->cpu1_L2C RFO          ACCESS:     647219 HIT:     180578 MISS:     466641 MSHR_MERGE:          0
cpu1->cpu1_L2C PREFETCH     ACCESS:          0 HIT:          0 MISS:          0 MSHR_MERGE:          0
cpu1->cpu1_L2C WRITE        ACCESS:    2376595 HIT:    2372534 MISS:       4061 MSHR_MERGE:          0
cpu1->cpu1_L2C TRANSLATION  ACCESS:    2341741 HIT:     539150 MISS:    1802591 MSHR_MERGE:          0
cpu1->cpu1_L2C PREFETCH REQUESTED:          0 ISSUED:          0 USEFUL:          0 USELESS:          0
cpu1->cpu1_L2C AVERAGE MISS LATENCY: 176.6 cycles
cpu1->cpu1_L1I TOTAL        ACCESS:   34556850 HIT:   34428409 MISS:     128441 MSHR_MERGE:      31890
cpu1->cpu1_L1I LOAD         ACCESS:   34556850 HIT:   34428409 MISS:     128441 MSHR_MERGE:      31890
cpu1->cpu1_L1I RFO          ACCESS:          0 HIT:          0 MISS:          0 MSHR_MERGE:          0
cpu1->cpu1_L1I PREFETCH     ACCESS:          0 HIT:          0 MISS:          0 MSHR_MERGE:          0
cpu1->cpu1_L1I WRITE        ACCESS:          0 HIT:          0 MISS:          0 MSHR_MERGE:          0
cpu1->cpu1_L1I TRANSLATION  ACCESS:          0 HIT:          0 MISS:          0 MSHR_MERGE:          0
cpu1->cpu1_L1I PREFETCH REQUESTED:          0 ISSUED:          0 USEFUL:          0 USELESS:          0
cpu1->cpu1_L1I AVERAGE MISS LATENCY: 31.53 cycles
cpu1->cpu1_L1D TOTAL        ACCESS:  100535731 HIT:   90897731 MISS:    9638000 MSHR_MERGE:    2433696
cpu1->cpu1_L1D LOAD         ACCESS:   52417367 HIT:   46972311 MISS:    5445056 MSHR_MERGE:    1229715
cpu1->cpu1_L1D RFO          ACCESS:          0 HIT:          0 MISS:          0 MSHR_MERGE:          0
cpu1->cpu1_L1D PREFETCH     ACCESS:          0 HIT:          0 MISS:          0 MSHR_MERGE:          0
cpu1->cpu1_L1D WRITE        ACCESS:   45569574 HIT:   43725396 MISS:    1844178 MSHR_MERGE:    1196956
cpu1->cpu1_L1D TRANSLATION  ACCESS:    2548790 HIT:     200024 MISS:    2348766 MSHR_MERGE:       7025
cpu1->cpu1_L1D PREFETCH REQUESTED:          0 ISSUED:          0 USEFUL:          0 USELESS:          0
cpu1->cpu1_L1D AVERAGE MISS LATENCY: 135.4 cycles
cpu1->cpu1_ITLB TOTAL        ACCESS:   30509958 HIT:   29751547 MISS:     758411 MSHR_MERGE:     363846
cpu1->cpu1_ITLB LOAD         ACCESS:   30509958 HIT:   29751547 MISS:     758411 MSHR_MERGE:     363846
cpu1->cpu1_ITLB RFO          ACCESS:          0 HIT:          0 MISS:          0 MSHR_MERGE:          0
cpu1->cpu1_ITLB PREFETCH     ACCESS:          0 HIT:          0 MISS:          0 MSHR_MERGE:          0
cpu1->cpu1_ITLB WRITE        ACCESS:          0 HIT:          0 MISS:          0 MSHR_MERGE:          0
cpu1->cpu1_ITLB TRANSLATION  ACCESS:          0 HIT:          0 MISS:          0 MSHR_MERGE:          0
cpu1->cpu1_ITLB PREFETCH REQUESTED:          0 ISSUED:          0 USEFUL:          0 USELESS:          0
cpu1->cpu1_ITLB AVERAGE MISS LATENCY: 9.523 cycles
cpu1->cpu1_DTLB TOTAL        ACCESS:   92583040 HIT:   87000197 MISS:    5582843 MSHR_MERGE:     820574
cpu1->cpu1_DTLB LOAD         ACCESS:   92583040 HIT:   87000197 MISS:    5582843 MSHR_MERGE:     820574
cpu1->cpu1_DTLB RFO          ACCESS:          0 HIT:          0 MISS:          0 MSHR_MERGE:          0
cpu1->cpu1_DTLB PREFETCH     ACCESS:          0 HIT:          0 MISS:          0 MSHR_MERGE:          0
cpu1->cpu1_DTLB WRITE        ACCESS:          0 HIT:          0 MISS:          0 MSHR_MERGE:          0
cpu1->cpu1_DTLB TRANSLATION  ACCESS:          0 HIT:          0 MISS:          0 MSHR_MERGE:          0
cpu1->cpu1_DTLB PREFETCH REQUESTED:          0 ISSUED:          0 USEFUL:          0 USELESS:          0
cpu1->cpu1_DTLB AVERAGE MISS LATENCY: 79.6 cycles
cpu0->cpu0_STLB TOTAL        ACCESS:       4218 HIT:        191 MISS:       4027 MSHR_MERGE:          0
cpu0->cpu0_STLB LOAD         ACCESS:       4218 HIT:        191 MISS:       4027 MSHR_MERGE:          0
cpu0->cpu0_STLB RFO          ACCESS:          0 HIT:          0 MISS:          0 MSHR_MERGE:          0
cpu0->cpu0_STLB PREFETCH     ACCESS:          0 HIT:          0 MISS:          0 MSHR_MERGE:          0
cpu0->cpu0_STLB WRITE        ACCESS:          0 HIT:          0 MISS:          0 MSHR_MERGE:          0
cpu0->cpu0_STLB TRANSLATION  ACCESS:          0 HIT:          0 MISS:          0 MSHR_MERGE:          0
cpu0->cpu0_STLB PREFETCH REQUESTED:          0 ISSUED:          0 USEFUL:          0 USELESS:          0
cpu0->cpu0_STLB AVERAGE MISS LATENCY: 702.2 cycles
cpu0->cpu0_L2C TOTAL        ACCESS:     483659 HIT:     221105 MISS:     262554 MSHR_MERGE:          0
cpu0->cpu0_L2C LOAD         ACCESS:      45896 HIT:       2904 MISS:      42992 MSHR_MERGE:          0
cpu0->cpu0_L2C RFO          ACCESS:     216154 HIT:       1816 MISS:     214338 MSHR_MERGE:          0
cpu0->cpu0_L2C PREFETCH     ACCESS:          0 HIT:          0 MISS:          0 MSHR_MERGE:          0
[...]
cpu3->cpu3_L1I PREFETCH     ACCESS:          0 HIT:          0 MISS:          0 MSHR_MERGE:          0
cpu3->cpu3_L1I WRITE        ACCESS:          0 HIT:          0 MISS:          0 MSHR_MERGE:          0
cpu3->cpu3_L1I TRANSLATION  ACCESS:          0 HIT:          0 MISS:          0 MSHR_MERGE:          0
cpu3->cpu3_L1I PREFETCH REQUESTED:          0 ISSUED:          0 USEFUL:          0 USELESS:          0
cpu3->cpu3_L1I AVERAGE MISS LATENCY: 13.85 cycles
cpu3->cpu3_L1D TOTAL        ACCESS:  328231943 HIT:  324719993 MISS:    3511950 MSHR_MERGE:     948942
cpu3->cpu3_L1D LOAD         ACCESS:  201341296 HIT:  198813094 MISS:    2528202 MSHR_MERGE:     273646
cpu3->cpu3_L1D RFO          ACCESS:          0 HIT:          0 MISS:          0 MSHR_MERGE:          0
cpu3->cpu3_L1D PREFETCH     ACCESS:          0 HIT:          0 MISS:          0 MSHR_MERGE:          0
cpu3->cpu3_L1D WRITE        ACCESS:  126887027 HIT:  125906152 MISS:     980875 MSHR_MERGE:     675293
cpu3->cpu3_L1D TRANSLATION  ACCESS:       3620 HIT:        747 MISS:       2873 MSHR_MERGE:          3
cpu3->cpu3_L1D PREFETCH REQUESTED:          0 ISSUED:          0 USEFUL:          0 USELESS:          0
cpu3->cpu3_L1D AVERAGE MISS LATENCY: 24.33 cycles
cpu3->cpu3_ITLB TOTAL        ACCESS:   94240293 HIT:   94240138 MISS:        155 MSHR_MERGE:         76
cpu3->cpu3_ITLB LOAD         ACCESS:   94240293 HIT:   94240138 MISS:        155 MSHR_MERGE:         76
cpu3->cpu3_ITLB RFO          ACCESS:          0 HIT:          0 MISS:          0 MSHR_MERGE:          0
cpu3->cpu3_ITLB PREFETCH     ACCESS:          0 HIT:          0 MISS:          0 MSHR_MERGE:          0
cpu3->cpu3_ITLB WRITE        ACCESS:          0 HIT:          0 MISS:          0 MSHR_MERGE:          0
cpu3->cpu3_ITLB TRANSLATION  ACCESS:          0 HIT:          0 MISS:          0 MSHR_MERGE:          0
cpu3->cpu3_ITLB PREFETCH REQUESTED:          0 ISSUED:          0 USEFUL:          0 USELESS:          0
cpu3->cpu3_ITLB AVERAGE MISS LATENCY: 596.1 cycles
cpu3->cpu3_DTLB TOTAL        ACCESS:  298511946 HIT:  297991206 MISS:     520740 MSHR_MERGE:      68836
cpu3->cpu3_DTLB LOAD         ACCESS:  298511946 HIT:  297991206 MISS:     520740 MSHR_MERGE:      68836
cpu3->cpu3_DTLB RFO          ACCESS:          0 HIT:          0 MISS:          0 MSHR_MERGE:          0
cpu3->cpu3_DTLB PREFETCH     ACCESS:          0 HIT:          0 MISS:          0 MSHR_MERGE:          0
cpu3->cpu3_DTLB WRITE        ACCESS:          0 HIT:          0 MISS:          0 MSHR_MERGE:          0
cpu3->cpu3_DTLB TRANSLATION  ACCESS:          0 HIT:          0 MISS:          0 MSHR_MERGE:          0
cpu3->cpu3_DTLB PREFETCH REQUESTED:          0 ISSUED:          0 USEFUL:          0 USELESS:          0
cpu3->cpu3_DTLB AVERAGE MISS LATENCY: 7.474 cycles
cpu2->cpu2_STLB TOTAL        ACCESS:     274746 HIT:      94888 MISS:     179858 MSHR_MERGE:          0
cpu2->cpu2_STLB LOAD         ACCESS:     274746 HIT:      94888 MISS:     179858 MSHR_MERGE:          0
cpu2->cpu2_STLB RFO          ACCESS:          0 HIT:          0 MISS:          0 MSHR_MERGE:          0
cpu2->cpu2_STLB PREFETCH     ACCESS:          0 HIT:          0 MISS:          0 MSHR_MERGE:          0
cpu2->cpu2_STLB WRITE        ACCESS:          0 HIT:          0 MISS:          0 MSHR_MERGE:          0
cpu2->cpu2_STLB TRANSLATION  ACCESS:          0 HIT:          0 MISS:          0 MSHR_MERGE:          0
cpu2->cpu2_STLB PREFETCH REQUESTED:          0 ISSUED:          0 USEFUL:          0 USELESS:          0
cpu2->cpu2_STLB AVERAGE MISS LATENCY: 928.4 cycles
cpu2->cpu2_L2C TOTAL        ACCESS:    2934824 HIT:    2152795 MISS:     782029 MSHR_MERGE:          0
cpu2->cpu2_L2C LOAD         ACCESS:    1596738 HIT:    1291073 MISS:     305665 MSHR_MERGE:          0
cpu2->cpu2_L2C RFO          ACCESS:     282305 HIT:     264249 MISS:      18056 MSHR_MERGE:          0
cpu2->cpu2_L2C PREFETCH     ACCESS:          0 HIT:          0 MISS:          0 MSHR_MERGE:          0
cpu2->cpu2_L2C WRITE        ACCESS:     528202 HIT:     526552 MISS:       1650 MSHR_MERGE:          0
cpu2->cpu2_L2C TRANSLATION  ACCESS:     527579 HIT:      70921 MISS:     456658 MSHR_MERGE:          0
cpu2->cpu2_L2C PREFETCH REQUESTED:          0 ISSUED:          0 USEFUL:          0 USELESS:          0
cpu2->cpu2_L2C AVERAGE MISS LATENCY: 213 cycles
cpu2->cpu2_L1I TOTAL        ACCESS:  122013241 HIT:  120772613 MISS:    1240628 MSHR_MERGE:     267888
cpu2->cpu2_L1I LOAD         ACCESS:  122013241 HIT:  120772613 MISS:    1240628 MSHR_MERGE:     267888
cpu2->cpu2_L1I RFO          ACCESS:          0 HIT:          0 MISS:          0 MSHR_MERGE:          0
cpu2->cpu2_L1I PREFETCH     ACCESS:          0 HIT:          0 MISS:          0 MSHR_MERGE:          0
cpu2->cpu2_L1I WRITE        ACCESS:          0 HIT:          0 MISS:          0 MSHR_MERGE:          0
cpu2->cpu2_L1I TRANSLATION  ACCESS:          0 HIT:          0 MISS:          0 MSHR_MERGE:          0
cpu2->cpu2_L1I PREFETCH REQUESTED:          0 ISSUED:          0 USEFUL:          0 USELESS:          0
cpu2->cpu2_L1I AVERAGE MISS LATENCY: 8.416 cycles
cpu2->cpu2_L1D TOTAL        ACCESS:  314744467 HIT:  312630884 MISS:    2113583 MSHR_MERGE:     679684
cpu2->cpu2_L1D LOAD         ACCESS:  190326914 HIT:  189495636 MISS:     831278 MSHR_MERGE:     207265
cpu2->cpu2_L1D RFO          ACCESS:          0 HIT:          0 MISS:          0 MSHR_MERGE:          0
cpu2->cpu2_L1D PREFETCH     ACCESS:          0 HIT:          0 MISS:          0 MSHR_MERGE:          0
cpu2->cpu2_L1D WRITE        ACCESS:  123876263 HIT:  123122746 MISS:     753517 MSHR_MERGE:     471210
cpu2->cpu2_L1D TRANSLATION  ACCESS:     541290 HIT:      12502 MISS:     528788 MSHR_MERGE:       1209
cpu2->cpu2_L1D PREFETCH REQUESTED:          0 ISSUED:          0 USEFUL:          0 USELESS:          0
cpu2->cpu2_L1D AVERAGE MISS LATENCY: 123.8 cycles
cpu2->cpu2_ITLB TOTAL        ACCESS:  103626966 HIT:  103626966 MISS:          0 MSHR_MERGE:          0
cpu2->cpu2_ITLB LOAD         ACCESS:  103626966 HIT:  103626966 MISS:          0 MSHR_MERGE:          0
cpu2->cpu2_ITLB RFO          ACCESS:          0 HIT:          0 MISS:          0 MSHR_MERGE:          0
cpu2->cpu2_ITLB PREFETCH     ACCESS:          0 HIT:          0 MISS:          0 MSHR_MERGE:          0
cpu2->cpu2_ITLB WRITE        ACCESS:          0 HIT:          0 MISS:          0 MSHR_MERGE:          0
cpu2->cpu2_ITLB TRANSLATION  ACCESS:          0 HIT:          0 MISS:          0 MSHR_MERGE:          0
cpu2->cpu2_ITLB PREFETCH REQUESTED:          0 ISSUED:          0 USEFUL:          0 USELESS:          0
cpu2->cpu2_ITLB AVERAGE MISS LATENCY: - cycles
cpu2->cpu2_DTLB TOTAL        ACCESS:  276206717 HIT:  275701613 MISS:     505104 MSHR_MERGE:     230358
cpu2->cpu2_DTLB LOAD         ACCESS:  276206717 HIT:  275701613 MISS:     505104 MSHR_MERGE:     230358
cpu2->cpu2_DTLB RFO          ACCESS:          0 HIT:          0 MISS:          0 MSHR_MERGE:          0
cpu2->cpu2_DTLB PREFETCH     ACCESS:          0 HIT:          0 MISS:          0 MSHR_MERGE:          0
cpu2->cpu2_DTLB WRITE        ACCESS:          0 HIT:          0 MISS:          0 MSHR_MERGE:          0
cpu2->cpu2_DTLB TRANSLATION  ACCESS:          0 HIT:          0 MISS:          0 MSHR_MERGE:          0
cpu2->cpu2_DTLB PREFETCH REQUESTED:          0 ISSUED:          0 USEFUL:          0 USELESS:          0
cpu2->cpu2_DTLB AVERAGE MISS LATENCY: 613.4 cycles
cpu1->cpu1_STLB TOTAL        ACCESS:    5156834 HIT:    4086533 MISS:    1070301 MSHR_MERGE:          0
cpu1->cpu1_STLB LOAD         ACCESS:    5156834 HIT:    4086533 MISS:    1070301 MSHR_MERGE:          0
cpu1->cpu1_STLB RFO          ACCESS:          0 HIT:          0 MISS:          0 MSHR_MERGE:          0
cpu1->cpu1_STLB PREFETCH     ACCESS:          0 HIT:          0 MISS:          0 MSHR_MERGE:          0
cpu1->cpu1_STLB WRITE        ACCESS:          0 HIT:          0 MISS:          0 MSHR_MERGE:          0
cpu1->cpu1_STLB TRANSLATION  ACCESS:          0 HIT:          0 MISS:          0 MSHR_MERGE:          0
cpu1->cpu1_STLB PREFETCH REQUESTED:          0 ISSUED:          0 USEFUL:          0 USELESS:          0
cpu1->cpu1_STLB AVERAGE MISS LATENCY: 332.6 cycles
cpu1->cpu1_L2C TOTAL        ACCESS:    9677437 HIT:    4496553 MISS:    5180884 MSHR_MERGE:          0
cpu1->cpu1_L2C LOAD         ACCESS:    4311882 HIT:    1404291 MISS:    2907591 MSHR_MERGE:          0
cpu1->cpu1_L2C RFO          ACCESS:     647219 HIT:     180578 MISS:     466641 MSHR_MERGE:          0
cpu1->cpu1_L2C PREFETCH     ACCESS:          0 HIT:          0 MISS:          0 MSHR_MERGE:          0
cpu1->cpu1_L2C WRITE        ACCESS:    2376595 HIT:    2372534 MISS:       4061 MSHR_MERGE:          0
cpu1->cpu1_L2C TRANSLATION  ACCESS:    2341741 HIT:     539150 MISS:    1802591 MSHR_MERGE:          0
cpu1->cpu1_L2C PREFETCH REQUESTED:          0 ISSUED:          0 USEFUL:          0 USELESS:          0
cpu1->cpu1_L2C AVERAGE MISS LATENCY: 176.6 cycles
cpu1->cpu1_L1I TOTAL        ACCESS:   34556850 HIT:   34428409 MISS:     128441 MSHR_MERGE:      31890
cpu1->cpu1_L1I LOAD         ACCESS:   34556850 HIT:   34428409 MISS:     128441 MSHR_MERGE:      31890
cpu1->cpu1_L1I RFO          ACCESS:          0 HIT:          0 MISS:          0 MSHR_MERGE:          0
cpu1->cpu1_L1I PREFETCH     ACCESS:          0 HIT:          0 MISS:          0 MSHR_MERGE:          0
cpu1->cpu1_L1I WRITE        ACCESS:          0 HIT:          0 MISS:          0 MSHR_MERGE:          0
cpu1->cpu1_L1I TRANSLATION  ACCESS:          0 HIT:          0 MISS:          0 MSHR_MERGE:          0
cpu1->cpu1_L1I PREFETCH REQUESTED:          0 ISSUED:          0 USEFUL:          0 USELESS:          0
cpu1->cpu1_L1I AVERAGE MISS LATENCY: 31.53 cycles
cpu1->cpu1_L1D TOTAL        ACCESS:  100535731 HIT:   90897731 MISS:    9638000 MSHR_MERGE:    2433696
cpu1->cpu1_L1D LOAD         ACCESS:   52417367 HIT:   46972311 MISS:    5445056 MSHR_MERGE:    1229715
cpu1->cpu1_L1D RFO          ACCESS:          0 HIT:          0 MISS:          0 MSHR_MERGE:          0
cpu1->cpu1_L1D PREFETCH     ACCESS:          0 HIT:          0 MISS:          0 MSHR_MERGE:          0
cpu1->cpu1_L1D WRITE        ACCESS:   45569574 HIT:   43725396 MISS:    1844178 MSHR_MERGE:    1196956
cpu1->cpu1_L1D TRANSLATION  ACCESS:    2548790 HIT:     200024 MISS:    2348766 MSHR_MERGE:       7025
cpu1->cpu1_L1D PREFETCH REQUESTED:          0 ISSUED:          0 USEFUL:          0 USELESS:          0
cpu1->cpu1_L1D AVERAGE MISS LATENCY: 135.4 cycles
cpu1->cpu1_ITLB TOTAL        ACCESS:   30509958 HIT:   29751547 MISS:     758411 MSHR_MERGE:     363846
cpu1->cpu1_ITLB LOAD         ACCESS:   30509958 HIT:   29751547 MISS:     758411 MSHR_MERGE:     363846
cpu1->cpu1_ITLB RFO          ACCESS:          0 HIT:          0 MISS:          0 MSHR_MERGE:          0
cpu1->cpu1_ITLB PREFETCH     ACCESS:          0 HIT:          0 MISS:          0 MSHR_MERGE:          0
cpu1->cpu1_ITLB WRITE        ACCESS:          0 HIT:          0 MISS:          0 MSHR_MERGE:          0
cpu1->cpu1_ITLB TRANSLATION  ACCESS:          0 HIT:          0 MISS:          0 MSHR_MERGE:          0
cpu1->cpu1_ITLB PREFETCH REQUESTED:          0 ISSUED:          0 USEFUL:          0 USELESS:          0
cpu1->cpu1_ITLB AVERAGE MISS LATENCY: 9.523 cycles
cpu1->cpu1_DTLB TOTAL        ACCESS:   92583040 HIT:   87000197 MISS:    5582843 MSHR_MERGE:     820574
cpu1->cpu1_DTLB LOAD         ACCESS:   92583040 HIT:   87000197 MISS:    5582843 MSHR_MERGE:     820574
cpu1->cpu1_DTLB RFO          ACCESS:          0 HIT:          0 MISS:          0 MSHR_MERGE:          0
cpu1->cpu1_DTLB PREFETCH     ACCESS:          0 HIT:          0 MISS:          0 MSHR_MERGE:          0
cpu1->cpu1_DTLB WRITE        ACCESS:          0 HIT:          0 MISS:          0 MSHR_MERGE:          0
cpu1->cpu1_DTLB TRANSLATION  ACCESS:          0 HIT:          0 MISS:          0 MSHR_MERGE:          0
cpu1->cpu1_DTLB PREFETCH REQUESTED:          0 ISSUED:          0 USEFUL:          0 USELESS:          0
cpu1->cpu1_DTLB AVERAGE MISS LATENCY: 79.6 cycles
cpu0->cpu0_STLB TOTAL        ACCESS:       4218 HIT:        191 MISS:       4027 MSHR_MERGE:          0
cpu0->cpu0_STLB LOAD         ACCESS:       4218 HIT:        191 MISS:       4027 MSHR_MERGE:          0
cpu0->cpu0_STLB RFO          ACCESS:          0 HIT:          0 MISS:          0 MSHR_MERGE:          0
cpu0->cpu0_STLB PREFETCH     ACCESS:          0 HIT:          0 MISS:          0 MSHR_MERGE:          0
cpu0->cpu0_STLB WRITE        ACCESS:          0 HIT:          0 MISS:          0 MSHR_MERGE:          0
cpu0->cpu0_STLB TRANSLATION  ACCESS:          0 HIT:          0 MISS:          0 MSHR_MERGE:          0
cpu0->cpu0_STLB PREFETCH REQUESTED:          0 ISSUED:          0 USEFUL:          0 USELESS:          0
cpu0->cpu0_STLB AVERAGE MISS LATENCY: 702.2 cycles
cpu0->cpu0_L2C TOTAL        ACCESS:     483659 HIT:     221105 MISS:     262554 MSHR_MERGE:          0
cpu0->cpu0_L2C LOAD         ACCESS:      45896 HIT:       2904 MISS:      42992 MSHR_MERGE:          0
cpu0->cpu0_L2C RFO          ACCESS:     216154 HIT:       1816 MISS:     214338 MSHR_MERGE:          0
cpu0->cpu0_L2C PREFETCH     ACCESS:          0 HIT:          0 MISS:          0 MSHR_MERGE:          0
cpu0->cpu0_L2C WRITE        ACCESS:     216484 HIT:     216143 MISS:        341 MSHR_MERGE:          0
cpu0->cpu0_L2C TRANSLATION  ACCESS:       5125 HIT:        242 MISS:       4883 MSHR_MERGE:          0
cpu0->cpu0_L2C PREFETCH REQUESTED:          0 ISSUED:          0 USEFUL:          0 USELESS:          0
cpu0->cpu0_L2C AVERAGE MISS LATENCY: 260 cycles
cpu0->cpu0_L1I TOTAL        ACCESS:   20591976 HIT:   20591976 MISS:          0 MSHR_MERGE:          0
cpu0->cpu0_L1I LOAD         ACCESS:   20591976 HIT:   20591976 MISS:          0 MSHR_MERGE:          0
cpu0->cpu0_L1I RFO          ACCESS:          0 HIT:          0 MISS:          0 MSHR_MERGE:          0
cpu0->cpu0_L1I PREFETCH     ACCESS:          0 HIT:          0 MISS:          0 MSHR_MERGE:          0
cpu0->cpu0_L1I WRITE        ACCESS:          0 HIT:          0 MISS:          0 MSHR_MERGE:          0
cpu0->cpu0_L1I TRANSLATION  ACCESS:          0 HIT:          0 MISS:          0 MSHR_MERGE:          0
cpu0->cpu0_L1I PREFETCH REQUESTED:          0 ISSUED:          0 USEFUL:          0 USELESS:          0
cpu0->cpu0_L1I AVERAGE MISS LATENCY: - cycles
cpu0->cpu0_L1D TOTAL        ACCESS:  392774653 HIT:  391202141 MISS:    1572512 MSHR_MERGE:    1305332
cpu0->cpu0_L1D LOAD         ACCESS:  329173321 HIT:  329093330 MISS:      79991 MSHR_MERGE:      34095
cpu0->cpu0_L1D RFO          ACCESS:          0 HIT:          0 MISS:          0 MSHR_MERGE:          0
cpu0->cpu0_L1D PREFETCH     ACCESS:          0 HIT:          0 MISS:          0 MSHR_MERGE:          0
cpu0->cpu0_L1D WRITE        ACCESS:   63593270 HIT:   62105876 MISS:    1487394 MSHR_MERGE:    1271235
cpu0->cpu0_L1D TRANSLATION  ACCESS:       8062 HIT:       2935 MISS:       5127 MSHR_MERGE:          2
cpu0->cpu0_L1D PREFETCH REQUESTED:          0 ISSUED:          0 USEFUL:          0 USELESS:          0
cpu0->cpu0_L1D AVERAGE MISS LATENCY: 264.7 cycles
cpu0->cpu0_ITLB TOTAL        ACCESS:   15485213 HIT:   15485213 MISS:          0 MSHR_MERGE:          0
cpu0->cpu0_ITLB LOAD         ACCESS:   15485213 HIT:   15485213 MISS:          0 MSHR_MERGE:          0
cpu0->cpu0_ITLB RFO          ACCESS:          0 HIT:          0 MISS:          0 MSHR_MERGE:          0
cpu0->cpu0_ITLB PREFETCH     ACCESS:          0 HIT:          0 MISS:          0 MSHR_MERGE:          0
cpu0->cpu0_ITLB WRITE        ACCESS:          0 HIT:          0 MISS:          0 MSHR_MERGE:          0
cpu0->cpu0_ITLB TRANSLATION  ACCESS:          0 HIT:          0 MISS:          0 MSHR_MERGE:          0
cpu0->cpu0_ITLB PREFETCH REQUESTED:          0 ISSUED:          0 USEFUL:          0 USELESS:          0
cpu0->cpu0_ITLB AVERAGE MISS LATENCY: - cycles
cpu0->cpu0_DTLB TOTAL        ACCESS:  380102703 HIT:  380063487 MISS:      39216 MSHR_MERGE:      34998
cpu0->cpu0_DTLB LOAD         ACCESS:  380102703 HIT:  380063487 MISS:      39216 MSHR_MERGE:      34998
cpu0->cpu0_DTLB RFO          ACCESS:          0 HIT:          0 MISS:          0 MSHR_MERGE:          0
cpu0->cpu0_DTLB PREFETCH     ACCESS:          0 HIT:          0 MISS:          0 MSHR_MERGE:          0
cpu0->cpu0_DTLB WRITE        ACCESS:          0 HIT:          0 MISS:          0 MSHR_MERGE:          0
cpu0->cpu0_DTLB TRANSLATION  ACCESS:          0 HIT:          0 MISS:          0 MSHR_MERGE:          0
cpu0->cpu0_DTLB PREFETCH REQUESTED:          0 ISSUED:          0 USEFUL:          0 USELESS:          0
cpu0->cpu0_DTLB AVERAGE MISS LATENCY: 676.3 cycles
cpu0->LLC TOTAL        ACCESS:     476538 HIT:        692 MISS:     475846 MSHR_MERGE:          0
cpu0->LLC LOAD         ACCESS:      42992 HIT:          0 MISS:      42992 MSHR_MERGE:          0
cpu0->LLC RFO          ACCESS:     214338 HIT:          0 MISS:     214338 MSHR_MERGE:          0
cpu0->LLC PREFETCH     ACCESS:          0 HIT:          0 MISS:          0 MSHR_MERGE:          0
cpu0->LLC WRITE        ACCESS:     214325 HIT:        692 MISS:     213633 MSHR_MERGE:          0
cpu0->LLC TRANSLATION  ACCESS:       4883 HIT:          0 MISS:       4883 MSHR_MERGE:          0
cpu0->LLC PREFETCH REQUESTED:          0 ISSUED:          0 USEFUL:          0 USELESS:          0
cpu0->LLC AVERAGE MISS LATENCY: 2303 cycles
cpu1->LLC TOTAL        ACCESS:    6862055 HIT:    2605202 MISS:    4256853 MSHR_MERGE:          0
cpu1->LLC LOAD         ACCESS:    2907591 HIT:     501126 MISS:    2406465 MSHR_MERGE:          0
cpu1->LLC RFO          ACCESS:     466640 HIT:     146054 MISS:     320586 MSHR_MERGE:          0
cpu1->LLC PREFETCH     ACCESS:          0 HIT:          0 MISS:          0 MSHR_MERGE:          0
cpu1->LLC WRITE        ACCESS:    1685233 HIT:    1610009 MISS:      75224 MSHR_MERGE:          0
cpu1->LLC TRANSLATION  ACCESS:    1802591 HIT:     348013 MISS:    1454578 MSHR_MERGE:          0
cpu1->LLC PREFETCH REQUESTED:          0 ISSUED:          0 USEFUL:          0 USELESS:          0
cpu1->LLC AVERAGE MISS LATENCY: 257.4 cycles
cpu2->LLC TOTAL        ACCESS:     999462 HIT:      49159 MISS:     950303 MSHR_MERGE:          0
cpu2->LLC LOAD         ACCESS:     305665 HIT:       3732 MISS:     301933 MSHR_MERGE:          0
cpu2->LLC RFO          ACCESS:      18056 HIT:       6303 MISS:      11753 MSHR_MERGE:          0
cpu2->LLC PREFETCH     ACCESS:          0 HIT:          0 MISS:          0 MSHR_MERGE:          0
cpu2->LLC WRITE        ACCESS:     219083 HIT:      35921 MISS:     183162 MSHR_MERGE:          0
cpu2->LLC TRANSLATION  ACCESS:     456658 HIT:       3203 MISS:     453455 MSHR_MERGE:          0
cpu2->LLC PREFETCH REQUESTED:          0 ISSUED:          0 USEFUL:          0 USELESS:          0
cpu2->LLC AVERAGE MISS LATENCY: 1153 cycles
cpu3->LLC TOTAL        ACCESS:     236523 HIT:       8420 MISS:     228103 MSHR_MERGE:          0
cpu3->LLC LOAD         ACCESS:      91942 HIT:       3385 MISS:      88557 MSHR_MERGE:          0
cpu3->LLC RFO          ACCESS:      68847 HIT:        329 MISS:      68518 MSHR_MERGE:          0
cpu3->LLC PREFETCH     ACCESS:          0 HIT:          0 MISS:          0 MSHR_MERGE:          0
cpu3->LLC WRITE        ACCESS:      72897 HIT:       4706 MISS:      68191 MSHR_MERGE:          0
cpu3->LLC TRANSLATION  ACCESS:       2837 HIT:          0 MISS:       2837 MSHR_MERGE:          0
cpu3->LLC PREFETCH REQUESTED:          0 ISSUED:          0 USEFUL:          0 USELESS:          0
cpu3->LLC AVERAGE MISS LATENCY: 4804 cycles

DRAM Statistics

Channel 0 RQ ROW_BUFFER_HIT:      18355
  ROW_BUFFER_MISS:    5351967
  AVG DBUS CONGESTED CYCLE: 13.9
Channel 0 WQ ROW_BUFFER_HIT:     574826
  ROW_BUFFER_MISS:    1275330
  FULL:          0
Channel 0 REFRESHES ISSUED:      69249
