[VMEM] WARNING: physical memory size is smaller than virtual memory size.

*** ChampSim Multicore Out-of-Order Simulator ***
Warmup Instructions: 50000000
Simulation Instructions: 250000000
Number of CPUs: 4
Page size: 4096

Off-chip DRAM Size: 16 GiB Channels: 1 Width: 64-bit Data Rate: 3205 MT/s
Heartbeat CPU 3 instructions: 10000001 cycles: 2536057 heartbeat IPC: 3.943 cumulative IPC: 3.943 (Simulation time: 00 hr 02 min 14 sec)
Heartbeat CPU 2 instructions: 10000002 cycles: 2726089 heartbeat IPC: 3.668 cumulative IPC: 3.668 (Simulation time: 00 hr 02 min 24 sec)
Heartbeat CPU 0 instructions: 10000000 cycles: 3066614 heartbeat IPC: 3.261 cumulative IPC: 3.261 (Simulation time: 00 hr 02 min 42 sec)
Heartbeat CPU 3 instructions: 20000001 cycles: 5063657 heartbeat IPC: 3.956 cumulative IPC: 3.95 (Simulation time: 00 hr 04 min 28 sec)
Heartbeat CPU 2 instructions: 20000005 cycles: 5315127 heartbeat IPC: 3.862 cumulative IPC: 3.763 (Simulation time: 00 hr 04 min 41 sec)
Heartbeat CPU 1 instructions: 10000003 cycles: 5767045 heartbeat IPC: 1.734 cumulative IPC: 1.734 (Simulation time: 00 hr 05 min 05 sec)
Heartbeat CPU 0 instructions: 20000004 cycles: 6147702 heartbeat IPC: 3.246 cumulative IPC: 3.253 (Simulation time: 00 hr 05 min 26 sec)
Heartbeat CPU 3 instructions: 30000004 cycles: 7580748 heartbeat IPC: 3.973 cumulative IPC: 3.957 (Simulation time: 00 hr 06 min 45 sec)
Heartbeat CPU 2 instructions: 30000006 cycles: 7977512 heartbeat IPC: 3.756 cumulative IPC: 3.761 (Simulation time: 00 hr 07 min 07 sec)
Heartbeat CPU 0 instructions: 30000005 cycles: 9110096 heartbeat IPC: 3.376 cumulative IPC: 3.293 (Simulation time: 00 hr 08 min 11 sec)
Heartbeat CPU 3 instructions: 40000005 cycles: 10095574 heartbeat IPC: 3.976 cumulative IPC: 3.962 (Simulation time: 00 hr 09 min 08 sec)
Heartbeat CPU 2 instructions: 40000009 cycles: 10508767 heartbeat IPC: 3.951 cumulative IPC: 3.806 (Simulation time: 00 hr 09 min 31 sec)
Heartbeat CPU 1 instructions: 20000004 cycles: 10562605 heartbeat IPC: 2.085 cumulative IPC: 1.893 (Simulation time: 00 hr 09 min 34 sec)
Heartbeat CPU 0 instructions: 40000005 cycles: 11613893 heartbeat IPC: 3.994 cumulative IPC: 3.444 (Simulation time: 00 hr 10 min 34 sec)
Warmup finished CPU 3 instructions: 50000000 cycles: 12611065 cumulative IPC: 3.965 (Simulation time: 00 hr 11 min 32 sec)
Heartbeat CPU 3 instructions: 50000008 cycles: 12611067 heartbeat IPC: 3.975 cumulative IPC: 3.965 (Simulation time: 00 hr 11 min 32 sec)
Warmup finished CPU 2 instructions: 50000000 cycles: 13088209 cumulative IPC: 3.82 (Simulation time: 00 hr 11 min 59 sec)
Heartbeat CPU 2 instructions: 50000010 cycles: 13088211 heartbeat IPC: 3.877 cumulative IPC: 3.82 (Simulation time: 00 hr 11 min 59 sec)
Warmup finished CPU 0 instructions: 50000002 cycles: 14113895 cumulative IPC: 3.543 (Simulation time: 00 hr 12 min 57 sec)
Heartbeat CPU 0 instructions: 50000007 cycles: 14113896 heartbeat IPC: 4 cumulative IPC: 3.543 (Simulation time: 00 hr 12 min 57 sec)
Heartbeat CPU 1 instructions: 30000008 cycles: 14942552 heartbeat IPC: 2.283 cumulative IPC: 2.008 (Simulation time: 00 hr 13 min 44 sec)
Heartbeat CPU 3 instructions: 60000010 cycles: 15125504 heartbeat IPC: 3.977 cumulative IPC: 3.967 (Simulation time: 00 hr 13 min 55 sec)
Heartbeat CPU 2 instructions: 60000011 cycles: 15606933 heartbeat IPC: 3.97 cumulative IPC: 3.844 (Simulation time: 00 hr 14 min 22 sec)
Heartbeat CPU 0 instructions: 60000007 cycles: 16613891 heartbeat IPC: 4 cumulative IPC: 3.611 (Simulation time: 00 hr 15 min 20 sec)
Heartbeat CPU 3 instructions: 70000013 cycles: 17639326 heartbeat IPC: 3.978 cumulative IPC: 3.968 (Simulation time: 00 hr 16 min 19 sec)
Heartbeat CPU 2 instructions: 70000014 cycles: 18106935 heartbeat IPC: 4 cumulative IPC: 3.866 (Simulation time: 00 hr 16 min 45 sec)
Heartbeat CPU 0 instructions: 70000008 cycles: 19125274 heartbeat IPC: 3.982 cumulative IPC: 3.66 (Simulation time: 00 hr 17 min 45 sec)
Heartbeat CPU 1 instructions: 40000012 cycles: 19230233 heartbeat IPC: 2.332 cumulative IPC: 2.08 (Simulation time: 00 hr 17 min 51 sec)
Heartbeat CPU 3 instructions: 80000013 cycles: 20154041 heartbeat IPC: 3.977 cumulative IPC: 3.969 (Simulation time: 00 hr 18 min 46 sec)
Heartbeat CPU 2 instructions: 80000015 cycles: 20642131 heartbeat IPC: 3.944 cumulative IPC: 3.876 (Simulation time: 00 hr 19 min 15 sec)
Heartbeat CPU 0 instructions: 80000010 cycles: 21625277 heartbeat IPC: 4 cumulative IPC: 3.699 (Simulation time: 00 hr 20 min 15 sec)
Heartbeat CPU 3 instructions: 90000015 cycles: 22667134 heartbeat IPC: 3.979 cumulative IPC: 3.971 (Simulation time: 00 hr 21 min 17 sec)
Warmup finished CPU 1 instructions: 50000003 cycles: 23051951 cumulative IPC: 2.169 (Simulation time: 00 hr 21 min 40 sec)
Warmup complete CPU 3 instructions: 91533812 cycles: 23051951 cumulative IPC: 3.971 (Simulation time: 00 hr 21 min 40 sec)
Warmup complete CPU 2 instructions: 89575250 cycles: 23051951 cumulative IPC: 3.886 (Simulation time: 00 hr 21 min 40 sec)
Warmup complete CPU 1 instructions: 50000003 cycles: 23051951 cumulative IPC: 2.169 (Simulation time: 00 hr 21 min 40 sec)
Warmup complete CPU 0 instructions: 85706711 cycles: 23051951 cumulative IPC: 3.718 (Simulation time: 00 hr 21 min 40 sec)
Heartbeat CPU 1 instructions: 50000013 cycles: 23051953 heartbeat IPC: 2.617 cumulative IPC: 5 (Simulation time: 00 hr 21 min 40 sec)
Heartbeat CPU 2 instructions: 90000015 cycles: 23671637 heartbeat IPC: 3.301 cumulative IPC: 0.6855 (Simulation time: 00 hr 21 min 58 sec)
Heartbeat CPU 3 instructions: 100000015 cycles: 26412659 heartbeat IPC: 2.67 cumulative IPC: 2.519 (Simulation time: 00 hr 23 min 13 sec)
Heartbeat CPU 3 instructions: 110000016 cycles: 30347469 heartbeat IPC: 2.541 cumulative IPC: 2.531 (Simulation time: 00 hr 25 min 06 sec)
Heartbeat CPU 3 instructions: 120000017 cycles: 34296992 heartbeat IPC: 2.532 cumulative IPC: 2.531 (Simulation time: 00 hr 26 min 58 sec)
Heartbeat CPU 0 instructions: 90000010 cycles: 34427624 heartbeat IPC: 0.7811 cumulative IPC: 0.3774 (Simulation time: 00 hr 27 min 02 sec)
Heartbeat CPU 3 instructions: 130000018 cycles: 38278834 heartbeat IPC: 2.511 cumulative IPC: 2.526 (Simulation time: 00 hr 28 min 52 sec)
Heartbeat CPU 2 instructions: 100000018 cycles: 39108555 heartbeat IPC: 0.6478 cumulative IPC: 0.6493 (Simulation time: 00 hr 29 min 14 sec)
Heartbeat CPU 2 instructions: 110000018 cycles: 49451928 heartbeat IPC: 0.9668 cumulative IPC: 0.7737 (Simulation time: 00 hr 33 min 50 sec)
Heartbeat CPU 3 instructions: 140000018 cycles: 49605364 heartbeat IPC: 0.8829 cumulative IPC: 1.825 (Simulation time: 00 hr 33 min 55 sec)
Heartbeat CPU 3 instructions: 150000018 cycles: 56220732 heartbeat IPC: 1.512 cumulative IPC: 1.763 (Simulation time: 00 hr 37 min 04 sec)
Heartbeat CPU 2 instructions: 120000020 cycles: 59160656 heartbeat IPC: 1.03 cumulative IPC: 0.8426 (Simulation time: 00 hr 38 min 33 sec)
Heartbeat CPU 3 instructions: 160000022 cycles: 60593693 heartbeat IPC: 2.287 cumulative IPC: 1.824 (Simulation time: 00 hr 39 min 18 sec)
Heartbeat CPU 1 instructions: 60000013 cycles: 63049180 heartbeat IPC: 0.25 cumulative IPC: 0.25 (Simulation time: 00 hr 40 min 33 sec)
Heartbeat CPU 3 instructions: 170000024 cycles: 65087054 heartbeat IPC: 2.226 cumulative IPC: 1.867 (Simulation time: 00 hr 41 min 34 sec)
Heartbeat CPU 2 instructions: 130000021 cycles: 68693406 heartbeat IPC: 1.049 cumulative IPC: 0.8857 (Simulation time: 00 hr 43 min 27 sec)
Heartbeat CPU 3 instructions: 180000026 cycles: 69376480 heartbeat IPC: 2.331 cumulative IPC: 1.91 (Simulation time: 00 hr 43 min 48 sec)
Heartbeat CPU 3 instructions: 190000030 cycles: 73695162 heartbeat IPC: 2.316 cumulative IPC: 1.944 (Simulation time: 00 hr 46 min 01 sec)
Heartbeat CPU 3 instructions: 200000032 cycles: 78121251 heartbeat IPC: 2.259 cumulative IPC: 1.97 (Simulation time: 00 hr 48 min 14 sec)
Heartbeat CPU 2 instructions: 140000024 cycles: 79851473 heartbeat IPC: 0.8962 cumulative IPC: 0.8878 (Simulation time: 00 hr 49 min 06 sec)
Heartbeat CPU 3 instructions: 210000034 cycles: 82414862 heartbeat IPC: 2.329 cumulative IPC: 1.996 (Simulation time: 00 hr 50 min 20 sec)
Heartbeat CPU 3 instructions: 220000036 cycles: 86762431 heartbeat IPC: 2.3 cumulative IPC: 2.016 (Simulation time: 00 hr 52 min 19 sec)
Heartbeat CPU 3 instructions: 230000039 cycles: 91170161 heartbeat IPC: 2.269 cumulative IPC: 2.033 (Simulation time: 00 hr 54 min 24 sec)
Heartbeat CPU 2 instructions: 150000025 cycles: 93037135 heartbeat IPC: 0.7584 cumulative IPC: 0.8634 (Simulation time: 00 hr 55 min 18 sec)
Heartbeat CPU 3 instructions: 240000042 cycles: 95522123 heartbeat IPC: 2.298 cumulative IPC: 2.049 (Simulation time: 00 hr 56 min 29 sec)
Heartbeat CPU 3 instructions: 250000044 cycles: 99914114 heartbeat IPC: 2.277 cumulative IPC: 2.062 (Simulation time: 00 hr 58 min 32 sec)
Heartbeat CPU 1 instructions: 70000015 cycles: 100282628 heartbeat IPC: 0.2686 cumulative IPC: 0.259 (Simulation time: 00 hr 58 min 43 sec)
Heartbeat CPU 0 instructions: 100000013 cycles: 100686200 heartbeat IPC: 0.1509 cumulative IPC: 0.1841 (Simulation time: 00 hr 58 min 55 sec)
Heartbeat CPU 3 instructions: 260000048 cycles: 104271507 heartbeat IPC: 2.295 cumulative IPC: 2.074 (Simulation time: 01 hr 00 min 35 sec)
Heartbeat CPU 2 instructions: 160000025 cycles: 107144567 heartbeat IPC: 0.7088 cumulative IPC: 0.8375 (Simulation time: 01 hr 01 min 52 sec)
Heartbeat CPU 3 instructions: 270000052 cycles: 108601545 heartbeat IPC: 2.309 cumulative IPC: 2.086 (Simulation time: 01 hr 02 min 33 sec)
Heartbeat CPU 3 instructions: 280000052 cycles: 113024650 heartbeat IPC: 2.261 cumulative IPC: 2.095 (Simulation time: 01 hr 04 min 39 sec)
Heartbeat CPU 3 instructions: 290000053 cycles: 117335155 heartbeat IPC: 2.32 cumulative IPC: 2.105 (Simulation time: 01 hr 06 min 40 sec)
Heartbeat CPU 2 instructions: 170000025 cycles: 121229019 heartbeat IPC: 0.71 cumulative IPC: 0.8192 (Simulation time: 01 hr 08 min 25 sec)
Heartbeat CPU 3 instructions: 300000055 cycles: 121660108 heartbeat IPC: 2.312 cumulative IPC: 2.114 (Simulation time: 01 hr 08 min 38 sec)
Heartbeat CPU 3 instructions: 310000055 cycles: 126105325 heartbeat IPC: 2.25 cumulative IPC: 2.12 (Simulation time: 01 hr 10 min 43 sec)
Heartbeat CPU 0 instructions: 110000015 cycles: 127366605 heartbeat IPC: 0.3748 cumulative IPC: 0.2329 (Simulation time: 01 hr 11 min 20 sec)
Heartbeat CPU 3 instructions: 320000058 cycles: 130465462 heartbeat IPC: 2.294 cumulative IPC: 2.127 (Simulation time: 01 hr 12 min 48 sec)
Heartbeat CPU 2 instructions: 180000029 cycles: 131853926 heartbeat IPC: 0.9412 cumulative IPC: 0.8311 (Simulation time: 01 hr 13 min 28 sec)
Heartbeat CPU 3 instructions: 330000062 cycles: 134827528 heartbeat IPC: 2.292 cumulative IPC: 2.133 (Simulation time: 01 hr 14 min 53 sec)
Heartbeat CPU 3 instructions: 340000065 cycles: 139135183 heartbeat IPC: 2.321 cumulative IPC: 2.14 (Simulation time: 01 hr 16 min 56 sec)
Heartbeat CPU 1 instructions: 80000016 cycles: 139570700 heartbeat IPC: 0.2545 cumulative IPC: 0.2575 (Simulation time: 01 hr 17 min 09 sec)
Simulation finished CPU 3 instructions: 250000000 cycles: 116759237 cumulative IPC: 2.141 (Simulation time: 01 hr 17 min 16 sec)
Heartbeat CPU 2 instructions: 190000029 cycles: 141666070 heartbeat IPC: 1.019 cumulative IPC: 0.8467 (Simulation time: 01 hr 18 min 09 sec)
Heartbeat CPU 3 instructions: 350000068 cycles: 143492046 heartbeat IPC: 2.295 cumulative IPC: 2.146 (Simulation time: 01 hr 19 min 02 sec)
Heartbeat CPU 3 instructions: 360000069 cycles: 147815936 heartbeat IPC: 2.313 cumulative IPC: 2.152 (Simulation time: 01 hr 21 min 08 sec)
Heartbeat CPU 2 instructions: 200000029 cycles: 151330768 heartbeat IPC: 1.035 cumulative IPC: 0.8608 (Simulation time: 01 hr 22 min 50 sec)
Heartbeat CPU 3 instructions: 370000070 cycles: 152127225 heartbeat IPC: 2.319 cumulative IPC: 2.157 (Simulation time: 01 hr 23 min 13 sec)
Heartbeat CPU 0 instructions: 120000015 cycles: 154928518 heartbeat IPC: 0.3628 cumulative IPC: 0.26 (Simulation time: 01 hr 24 min 35 sec)
Heartbeat CPU 3 instructions: 380000070 cycles: 156394189 heartbeat IPC: 2.344 cumulative IPC: 2.163 (Simulation time: 01 hr 25 min 18 sec)
Heartbeat CPU 2 instructions: 210000029 cycles: 160670719 heartbeat IPC: 1.071 cumulative IPC: 0.8751 (Simulation time: 01 hr 27 min 22 sec)
Heartbeat CPU 3 instructions: 390000072 cycles: 160751611 heartbeat IPC: 2.295 cumulative IPC: 2.168 (Simulation time: 01 hr 27 min 25 sec)
Heartbeat CPU 3 instructions: 400000075 cycles: 173992521 heartbeat IPC: 0.7552 cumulative IPC: 2.044 (Simulation time: 01 hr 32 min 59 sec)
Heartbeat CPU 2 instructions: 220000029 cycles: 175835211 heartbeat IPC: 0.6594 cumulative IPC: 0.8537 (Simulation time: 01 hr 33 min 47 sec)
Heartbeat CPU 1 instructions: 90000017 cycles: 179662456 heartbeat IPC: 0.2494 cumulative IPC: 0.2554 (Simulation time: 01 hr 35 min 29 sec)
Heartbeat CPU 3 instructions: 410000077 cycles: 182074283 heartbeat IPC: 1.237 cumulative IPC: 2.003 (Simulation time: 01 hr 36 min 39 sec)
Heartbeat CPU 0 instructions: 130000017 cycles: 184690691 heartbeat IPC: 0.336 cumulative IPC: 0.274 (Simulation time: 01 hr 37 min 54 sec)
Heartbeat CPU 2 instructions: 230000030 cycles: 186657413 heartbeat IPC: 0.924 cumulative IPC: 0.8583 (Simulation time: 01 hr 38 min 44 sec)
Heartbeat CPU 3 instructions: 420000080 cycles: 191956587 heartbeat IPC: 1.012 cumulative IPC: 1.945 (Simulation time: 01 hr 40 min 59 sec)
Heartbeat CPU 2 instructions: 240000033 cycles: 196610011 heartbeat IPC: 1.005 cumulative IPC: 0.8667 (Simulation time: 01 hr 43 min 07 sec)
Heartbeat CPU 3 instructions: 430000081 cycles: 197795785 heartbeat IPC: 1.713 cumulative IPC: 1.937 (Simulation time: 01 hr 43 min 41 sec)
Heartbeat CPU 3 instructions: 440000085 cycles: 202543326 heartbeat IPC: 2.106 cumulative IPC: 1.941 (Simulation time: 01 hr 45 min 59 sec)
Heartbeat CPU 2 instructions: 250000037 cycles: 206125267 heartbeat IPC: 1.051 cumulative IPC: 0.8763 (Simulation time: 01 hr 47 min 43 sec)
Heartbeat CPU 3 instructions: 450000089 cycles: 207196298 heartbeat IPC: 2.149 cumulative IPC: 1.947 (Simulation time: 01 hr 48 min 14 sec)
Heartbeat CPU 3 instructions: 460000092 cycles: 211940206 heartbeat IPC: 2.108 cumulative IPC: 1.951 (Simulation time: 01 hr 50 min 31 sec)
Heartbeat CPU 0 instructions: 140000021 cycles: 213038806 heartbeat IPC: 0.3528 cumulative IPC: 0.2858 (Simulation time: 01 hr 51 min 02 sec)
Heartbeat CPU 2 instructions: 260000038 cycles: 215175845 heartbeat IPC: 1.105 cumulative IPC: 0.8871 (Simulation time: 01 hr 52 min 06 sec)
Heartbeat CPU 3 instructions: 470000095 cycles: 216714249 heartbeat IPC: 2.095 cumulative IPC: 1.954 (Simulation time: 01 hr 52 min 47 sec)
Heartbeat CPU 3 instructions: 480000095 cycles: 221330621 heartbeat IPC: 2.166 cumulative IPC: 1.959 (Simulation time: 01 hr 55 min 05 sec)
Heartbeat CPU 1 instructions: 100000019 cycles: 222754066 heartbeat IPC: 0.2321 cumulative IPC: 0.2504 (Simulation time: 01 hr 55 min 48 sec)
Heartbeat CPU 2 instructions: 270000039 cycles: 223566726 heartbeat IPC: 1.192 cumulative IPC: 0.8998 (Simulation time: 01 hr 56 min 13 sec)
Heartbeat CPU 3 instructions: 490000098 cycles: 226044900 heartbeat IPC: 2.121 cumulative IPC: 1.963 (Simulation time: 01 hr 57 min 26 sec)
Heartbeat CPU 3 instructions: 500000102 cycles: 230688849 heartbeat IPC: 2.153 cumulative IPC: 1.967 (Simulation time: 01 hr 59 min 43 sec)
Heartbeat CPU 2 instructions: 280000039 cycles: 231889382 heartbeat IPC: 1.202 cumulative IPC: 0.9118 (Simulation time: 02 hr 00 min 18 sec)
Heartbeat CPU 3 instructions: 510000102 cycles: 235305233 heartbeat IPC: 2.166 cumulative IPC: 1.972 (Simulation time: 02 hr 01 min 58 sec)
Heartbeat CPU 3 instructions: 520000102 cycles: 239874208 heartbeat IPC: 2.189 cumulative IPC: 1.976 (Simulation time: 02 hr 04 min 09 sec)
Heartbeat CPU 0 instructions: 150000022 cycles: 240082736 heartbeat IPC: 0.3698 cumulative IPC: 0.2962 (Simulation time: 02 hr 04 min 15 sec)
Heartbeat CPU 2 instructions: 290000040 cycles: 242358545 heartbeat IPC: 0.9552 cumulative IPC: 0.9139 (Simulation time: 02 hr 05 min 21 sec)
Heartbeat CPU 3 instructions: 530000102 cycles: 244484810 heartbeat IPC: 2.169 cumulative IPC: 1.98 (Simulation time: 02 hr 06 min 21 sec)
Heartbeat CPU 3 instructions: 540000105 cycles: 249169938 heartbeat IPC: 2.134 cumulative IPC: 1.983 (Simulation time: 02 hr 08 min 30 sec)
Heartbeat CPU 3 instructions: 550000105 cycles: 253790685 heartbeat IPC: 2.164 cumulative IPC: 1.987 (Simulation time: 02 hr 10 min 36 sec)
Heartbeat CPU 3 instructions: 560000106 cycles: 258367077 heartbeat IPC: 2.185 cumulative IPC: 1.991 (Simulation time: 02 hr 12 min 48 sec)
Heartbeat CPU 2 instructions: 300000043 cycles: 258578309 heartbeat IPC: 0.6165 cumulative IPC: 0.8934 (Simulation time: 02 hr 12 min 54 sec)
Heartbeat CPU 1 instructions: 110000020 cycles: 262973415 heartbeat IPC: 0.2486 cumulative IPC: 0.2501 (Simulation time: 02 hr 14 min 50 sec)
Heartbeat CPU 0 instructions: 160000022 cycles: 268855129 heartbeat IPC: 0.3476 cumulative IPC: 0.3022 (Simulation time: 02 hr 17 min 10 sec)
Heartbeat CPU 2 instructions: 310000044 cycles: 270073119 heartbeat IPC: 0.87 cumulative IPC: 0.8923 (Simulation time: 02 hr 17 min 40 sec)
Heartbeat CPU 3 instructions: 570000107 cycles: 274608017 heartbeat IPC: 0.6157 cumulative IPC: 1.902 (Simulation time: 02 hr 19 min 41 sec)
Heartbeat CPU 3 instructions: 580000108 cycles: 280500733 heartbeat IPC: 1.697 cumulative IPC: 1.897 (Simulation time: 02 hr 22 min 19 sec)
Heartbeat CPU 2 instructions: 320000047 cycles: 284778104 heartbeat IPC: 0.68 cumulative IPC: 0.8804 (Simulation time: 02 hr 24 min 08 sec)
Heartbeat CPU 3 instructions: 590000109 cycles: 290262672 heartbeat IPC: 1.024 cumulative IPC: 1.865 (Simulation time: 02 hr 26 min 33 sec)
Heartbeat CPU 3 instructions: 600000113 cycles: 295670724 heartbeat IPC: 1.849 cumulative IPC: 1.865 (Simulation time: 02 hr 29 min 04 sec)
Heartbeat CPU 2 instructions: 330000047 cycles: 295754775 heartbeat IPC: 0.911 cumulative IPC: 0.8816 (Simulation time: 02 hr 29 min 07 sec)
Heartbeat CPU 0 instructions: 170000022 cycles: 296898860 heartbeat IPC: 0.3566 cumulative IPC: 0.3078 (Simulation time: 02 hr 29 min 39 sec)
Heartbeat CPU 3 instructions: 610000114 cycles: 301170300 heartbeat IPC: 1.818 cumulative IPC: 1.864 (Simulation time: 02 hr 31 min 38 sec)
Heartbeat CPU 1 instructions: 120000021 cycles: 305095857 heartbeat IPC: 0.2374 cumulative IPC: 0.2482 (Simulation time: 02 hr 33 min 29 sec)
Simulation finished CPU 2 instructions: 250000001 cycles: 282372765 cumulative IPC: 0.8854 (Simulation time: 02 hr 33 min 38 sec)
Heartbeat CPU 2 instructions: 340000049 cycles: 305809893 heartbeat IPC: 0.9945 cumulative IPC: 0.8857 (Simulation time: 02 hr 33 min 49 sec)
Heartbeat CPU 3 instructions: 620000114 cycles: 306540843 heartbeat IPC: 1.862 cumulative IPC: 1.864 (Simulation time: 02 hr 34 min 10 sec)
Heartbeat CPU 3 instructions: 630000114 cycles: 311986348 heartbeat IPC: 1.836 cumulative IPC: 1.864 (Simulation time: 02 hr 36 min 43 sec)
Heartbeat CPU 2 instructions: 350000052 cycles: 315391593 heartbeat IPC: 1.044 cumulative IPC: 0.8908 (Simulation time: 02 hr 38 min 19 sec)
Heartbeat CPU 3 instructions: 640000115 cycles: 317428583 heartbeat IPC: 1.837 cumulative IPC: 1.863 (Simulation time: 02 hr 39 min 17 sec)
Heartbeat CPU 3 instructions: 650000115 cycles: 322788306 heartbeat IPC: 1.866 cumulative IPC: 1.863 (Simulation time: 02 hr 41 min 48 sec)
Heartbeat CPU 2 instructions: 360000053 cycles: 324764967 heartbeat IPC: 1.067 cumulative IPC: 0.8963 (Simulation time: 02 hr 42 min 44 sec)
Heartbeat CPU 0 instructions: 180000022 cycles: 326247032 heartbeat IPC: 0.3407 cumulative IPC: 0.311 (Simulation time: 02 hr 43 min 26 sec)
Heartbeat CPU 3 instructions: 660000117 cycles: 328094948 heartbeat IPC: 1.884 cumulative IPC: 1.864 (Simulation time: 02 hr 44 min 18 sec)
Heartbeat CPU 2 instructions: 370000057 cycles: 334224687 heartbeat IPC: 1.057 cumulative IPC: 0.9012 (Simulation time: 02 hr 46 min 48 sec)
Heartbeat CPU 2 instructions: 380000058 cycles: 342538248 heartbeat IPC: 1.203 cumulative IPC: 0.909 (Simulation time: 02 hr 50 min 16 sec)
Heartbeat CPU 3 instructions: 670000120 cycles: 344572554 heartbeat IPC: 0.6069 cumulative IPC: 1.799 (Simulation time: 02 hr 51 min 18 sec)
Heartbeat CPU 1 instructions: 130000025 cycles: 348278921 heartbeat IPC: 0.2316 cumulative IPC: 0.246 (Simulation time: 02 hr 53 min 06 sec)
Heartbeat CPU 2 instructions: 390000059 cycles: 349822560 heartbeat IPC: 1.373 cumulative IPC: 0.9194 (Simulation time: 02 hr 53 min 46 sec)
Heartbeat CPU 3 instructions: 680000123 cycles: 352321955 heartbeat IPC: 1.29 cumulative IPC: 1.787 (Simulation time: 02 hr 54 min 51 sec)
Heartbeat CPU 2 instructions: 400000062 cycles: 357827264 heartbeat IPC: 1.249 cumulative IPC: 0.9273 (Simulation time: 02 hr 57 min 16 sec)
Heartbeat CPU 3 instructions: 690000127 cycles: 359638940 heartbeat IPC: 1.367 cumulative IPC: 1.778 (Simulation time: 02 hr 58 min 07 sec)
Heartbeat CPU 3 instructions: 700000129 cycles: 364863464 heartbeat IPC: 1.914 cumulative IPC: 1.78 (Simulation time: 03 hr 00 min 32 sec)
Heartbeat CPU 2 instructions: 410000062 cycles: 367296204 heartbeat IPC: 1.056 cumulative IPC: 0.9308 (Simulation time: 03 hr 01 min 39 sec)
Heartbeat CPU 3 instructions: 710000131 cycles: 370121213 heartbeat IPC: 1.902 cumulative IPC: 1.782 (Simulation time: 03 hr 02 min 56 sec)
Heartbeat CPU 3 instructions: 720000132 cycles: 375337704 heartbeat IPC: 1.917 cumulative IPC: 1.784 (Simulation time: 03 hr 05 min 17 sec)
Heartbeat CPU 3 instructions: 730000132 cycles: 380626386 heartbeat IPC: 1.891 cumulative IPC: 1.786 (Simulation time: 03 hr 07 min 35 sec)
Heartbeat CPU 0 instructions: 190000022 cycles: 381135857 heartbeat IPC: 0.1822 cumulative IPC: 0.2913 (Simulation time: 03 hr 07 min 48 sec)
Heartbeat CPU 2 instructions: 420000064 cycles: 382178179 heartbeat IPC: 0.672 cumulative IPC: 0.9201 (Simulation time: 03 hr 08 min 14 sec)
Heartbeat CPU 3 instructions: 740000133 cycles: 385906039 heartbeat IPC: 1.894 cumulative IPC: 1.787 (Simulation time: 03 hr 09 min 55 sec)
Heartbeat CPU 1 instructions: 140000026 cycles: 386648059 heartbeat IPC: 0.2606 cumulative IPC: 0.2475 (Simulation time: 03 hr 10 min 16 sec)
Heartbeat CPU 3 instructions: 750000133 cycles: 391228218 heartbeat IPC: 1.879 cumulative IPC: 1.788 (Simulation time: 03 hr 12 min 22 sec)
Heartbeat CPU 2 instructions: 430000064 cycles: 393346006 heartbeat IPC: 0.8954 cumulative IPC: 0.9193 (Simulation time: 03 hr 13 min 20 sec)
Heartbeat CPU 2 instructions: 440000064 cycles: 403541411 heartbeat IPC: 0.9808 cumulative IPC: 0.921 (Simulation time: 03 hr 17 min 32 sec)
Heartbeat CPU 3 instructions: 760000133 cycles: 406159646 heartbeat IPC: 0.6697 cumulative IPC: 1.745 (Simulation time: 03 hr 18 min 38 sec)
Heartbeat CPU 3 instructions: 770000133 cycles: 413256900 heartbeat IPC: 1.409 cumulative IPC: 1.739 (Simulation time: 03 hr 21 min 53 sec)
Heartbeat CPU 2 instructions: 450000066 cycles: 413909151 heartbeat IPC: 0.9645 cumulative IPC: 0.9221 (Simulation time: 03 hr 22 min 13 sec)
Heartbeat CPU 0 instructions: 200000022 cycles: 419642415 heartbeat IPC: 0.2597 cumulative IPC: 0.2882 (Simulation time: 03 hr 24 min 47 sec)
Heartbeat CPU 2 instructions: 460000067 cycles: 422822619 heartbeat IPC: 1.122 cumulative IPC: 0.9266 (Simulation time: 03 hr 26 min 09 sec)
Heartbeat CPU 3 instructions: 780000136 cycles: 423199635 heartbeat IPC: 1.006 cumulative IPC: 1.721 (Simulation time: 03 hr 26 min 19 sec)
Heartbeat CPU 3 instructions: 790000136 cycles: 427361664 heartbeat IPC: 2.403 cumulative IPC: 1.728 (Simulation time: 03 hr 28 min 17 sec)
Heartbeat CPU 1 instructions: 150000028 cycles: 428185364 heartbeat IPC: 0.2407 cumulative IPC: 0.2468 (Simulation time: 03 hr 28 min 40 sec)
Heartbeat CPU 3 instructions: 800000139 cycles: 431512008 heartbeat IPC: 2.409 cumulative IPC: 1.734 (Simulation time: 03 hr 30 min 13 sec)
Heartbeat CPU 3 instructions: 810000141 cycles: 435673339 heartbeat IPC: 2.403 cumulative IPC: 1.741 (Simulation time: 03 hr 32 min 03 sec)
Heartbeat CPU 2 instructions: 470000069 cycles: 437356138 heartbeat IPC: 0.6881 cumulative IPC: 0.9182 (Simulation time: 03 hr 32 min 50 sec)
Heartbeat CPU 3 instructions: 820000141 cycles: 439842822 heartbeat IPC: 2.398 cumulative IPC: 1.748 (Simulation time: 03 hr 34 min 01 sec)
Heartbeat CPU 3 instructions: 830000144 cycles: 444006247 heartbeat IPC: 2.402 cumulative IPC: 1.754 (Simulation time: 03 hr 36 min 00 sec)
Heartbeat CPU 0 instructions: 210000026 cycles: 445979030 heartbeat IPC: 0.3797 cumulative IPC: 0.2939 (Simulation time: 03 hr 36 min 56 sec)
Heartbeat CPU 2 instructions: 480000069 cycles: 447684740 heartbeat IPC: 0.9682 cumulative IPC: 0.9194 (Simulation time: 03 hr 37 min 44 sec)
Heartbeat CPU 3 instructions: 840000145 cycles: 448187085 heartbeat IPC: 2.392 cumulative IPC: 1.761 (Simulation time: 03 hr 37 min 58 sec)
Heartbeat CPU 3 instructions: 850000145 cycles: 452354911 heartbeat IPC: 2.399 cumulative IPC: 1.767 (Simulation time: 03 hr 39 min 57 sec)
Heartbeat CPU 3 instructions: 860000145 cycles: 456497993 heartbeat IPC: 2.414 cumulative IPC: 1.773 (Simulation time: 03 hr 41 min 55 sec)
Heartbeat CPU 2 instructions: 490000069 cycles: 457951835 heartbeat IPC: 0.974 cumulative IPC: 0.9207 (Simulation time: 03 hr 42 min 37 sec)
Heartbeat CPU 3 instructions: 870000149 cycles: 460647485 heartbeat IPC: 2.41 cumulative IPC: 1.779 (Simulation time: 03 hr 43 min 55 sec)
Heartbeat CPU 3 instructions: 880000150 cycles: 464886770 heartbeat IPC: 2.359 cumulative IPC: 1.785 (Simulation time: 03 hr 45 min 55 sec)
Heartbeat CPU 1 instructions: 160000030 cycles: 466729936 heartbeat IPC: 0.2594 cumulative IPC: 0.2479 (Simulation time: 03 hr 46 min 46 sec)
Heartbeat CPU 3 instructions: 890000152 cycles: 469150533 heartbeat IPC: 2.345 cumulative IPC: 1.79 (Simulation time: 03 hr 47 min 50 sec)
Heartbeat CPU 2 instructions: 500000070 cycles: 471972895 heartbeat IPC: 0.7132 cumulative IPC: 0.9142 (Simulation time: 03 hr 49 min 07 sec)
Heartbeat CPU 0 instructions: 220000027 cycles: 473369105 heartbeat IPC: 0.3651 cumulative IPC: 0.2982 (Simulation time: 03 hr 49 min 46 sec)
Heartbeat CPU 3 instructions: 900000153 cycles: 473412671 heartbeat IPC: 2.346 cumulative IPC: 1.795 (Simulation time: 03 hr 49 min 47 sec)
Heartbeat CPU 3 instructions: 910000154 cycles: 477709493 heartbeat IPC: 2.327 cumulative IPC: 1.8 (Simulation time: 03 hr 51 min 49 sec)
Heartbeat CPU 3 instructions: 920000155 cycles: 482005690 heartbeat IPC: 2.328 cumulative IPC: 1.805 (Simulation time: 03 hr 53 min 51 sec)
Heartbeat CPU 2 instructions: 510000071 cycles: 483375031 heartbeat IPC: 0.877 cumulative IPC: 0.9133 (Simulation time: 03 hr 54 min 29 sec)
Heartbeat CPU 3 instructions: 930000155 cycles: 486323956 heartbeat IPC: 2.316 cumulative IPC: 1.81 (Simulation time: 03 hr 55 min 53 sec)
Heartbeat CPU 3 instructions: 940000158 cycles: 490629530 heartbeat IPC: 2.323 cumulative IPC: 1.815 (Simulation time: 03 hr 57 min 55 sec)
Heartbeat CPU 2 instructions: 520000074 cycles: 493679374 heartbeat IPC: 0.9705 cumulative IPC: 0.9146 (Simulation time: 03 hr 59 min 21 sec)
Heartbeat CPU 3 instructions: 950000162 cycles: 494938473 heartbeat IPC: 2.321 cumulative IPC: 1.819 (Simulation time: 03 hr 59 min 57 sec)
Heartbeat CPU 3 instructions: 960000163 cycles: 499249233 heartbeat IPC: 2.32 cumulative IPC: 1.824 (Simulation time: 04 hr 02 min 00 sec)
Heartbeat CPU 0 instructions: 230000028 cycles: 501650456 heartbeat IPC: 0.3536 cumulative IPC: 0.3015 (Simulation time: 04 hr 03 min 08 sec)
Heartbeat CPU 2 instructions: 530000075 cycles: 503402525 heartbeat IPC: 1.028 cumulative IPC: 0.9169 (Simulation time: 04 hr 03 min 58 sec)
Heartbeat CPU 3 instructions: 970000163 cycles: 503563355 heartbeat IPC: 2.318 cumulative IPC: 1.828 (Simulation time: 04 hr 04 min 03 sec)
Heartbeat CPU 1 instructions: 170000032 cycles: 507027932 heartbeat IPC: 0.2482 cumulative IPC: 0.2479 (Simulation time: 04 hr 05 min 43 sec)
Heartbeat CPU 3 instructions: 980000163 cycles: 507854387 heartbeat IPC: 2.33 cumulative IPC: 1.833 (Simulation time: 04 hr 06 min 07 sec)
Heartbeat CPU 3 instructions: 990000166 cycles: 512121242 heartbeat IPC: 2.344 cumulative IPC: 1.837 (Simulation time: 04 hr 08 min 09 sec)
Heartbeat CPU 2 instructions: 540000078 cycles: 512731518 heartbeat IPC: 1.072 cumulative IPC: 0.9198 (Simulation time: 04 hr 08 min 27 sec)
Heartbeat CPU 3 instructions: 1000000169 cycles: 516418613 heartbeat IPC: 2.327 cumulative IPC: 1.841 (Simulation time: 04 hr 10 min 13 sec)
Heartbeat CPU 3 instructions: 1010000169 cycles: 520674206 heartbeat IPC: 2.35 cumulative IPC: 1.846 (Simulation time: 04 hr 12 min 15 sec)
Heartbeat CPU 2 instructions: 550000082 cycles: 521747627 heartbeat IPC: 1.109 cumulative IPC: 0.9233 (Simulation time: 04 hr 12 min 46 sec)
Heartbeat CPU 3 instructions: 1020000173 cycles: 524569510 heartbeat IPC: 2.567 cumulative IPC: 1.851 (Simulation time: 04 hr 14 min 09 sec)
Heartbeat CPU 3 instructions: 1030000173 cycles: 528207517 heartbeat IPC: 2.749 cumulative IPC: 1.858 (Simulation time: 04 hr 15 min 57 sec)
Heartbeat CPU 0 instructions: 240000028 cycles: 529771570 heartbeat IPC: 0.3556 cumulative IPC: 0.3045 (Simulation time: 04 hr 16 min 44 sec)
Heartbeat CPU 2 instructions: 560000083 cycles: 530720499 heartbeat IPC: 1.114 cumulative IPC: 0.9266 (Simulation time: 04 hr 17 min 12 sec)
Heartbeat CPU 3 instructions: 1040000174 cycles: 531846348 heartbeat IPC: 2.748 cumulative IPC: 1.864 (Simulation time: 04 hr 17 min 46 sec)
Heartbeat CPU 3 instructions: 1050000176 cycles: 535465542 heartbeat IPC: 2.763 cumulative IPC: 1.87 (Simulation time: 04 hr 19 min 34 sec)
Heartbeat CPU 2 instructions: 570000084 cycles: 538183697 heartbeat IPC: 1.34 cumulative IPC: 0.9326 (Simulation time: 04 hr 20 min 56 sec)
Heartbeat CPU 3 instructions: 1060000176 cycles: 539702273 heartbeat IPC: 2.36 cumulative IPC: 1.875 (Simulation time: 04 hr 21 min 41 sec)
Heartbeat CPU 3 instructions: 1070000179 cycles: 544145923 heartbeat IPC: 2.25 cumulative IPC: 1.878 (Simulation time: 04 hr 23 min 53 sec)
Heartbeat CPU 2 instructions: 580000087 cycles: 545123297 heartbeat IPC: 1.441 cumulative IPC: 0.9394 (Simulation time: 04 hr 24 min 22 sec)
Heartbeat CPU 1 instructions: 180000032 cycles: 546119863 heartbeat IPC: 0.2558 cumulative IPC: 0.2485 (Simulation time: 04 hr 24 min 51 sec)
Heartbeat CPU 3 instructions: 1080000181 cycles: 548664988 heartbeat IPC: 2.213 cumulative IPC: 1.881 (Simulation time: 04 hr 26 min 06 sec)
Heartbeat CPU 2 instructions: 590000087 cycles: 552769716 heartbeat IPC: 1.308 cumulative IPC: 0.9447 (Simulation time: 04 hr 28 min 05 sec)
Heartbeat CPU 3 instructions: 1090000183 cycles: 553228201 heartbeat IPC: 2.191 cumulative IPC: 1.883 (Simulation time: 04 hr 28 min 18 sec)
Heartbeat CPU 0 instructions: 250000028 cycles: 556930853 heartbeat IPC: 0.3682 cumulative IPC: 0.3077 (Simulation time: 04 hr 30 min 06 sec)
Heartbeat CPU 3 instructions: 1100000183 cycles: 557779266 heartbeat IPC: 2.197 cumulative IPC: 1.886 (Simulation time: 04 hr 30 min 30 sec)
Heartbeat CPU 2 instructions: 600000087 cycles: 561320970 heartbeat IPC: 1.169 cumulative IPC: 0.9483 (Simulation time: 04 hr 32 min 12 sec)
Heartbeat CPU 3 instructions: 1110000184 cycles: 562027386 heartbeat IPC: 2.354 cumulative IPC: 1.89 (Simulation time: 04 hr 32 min 33 sec)
Heartbeat CPU 3 instructions: 1120000186 cycles: 566162121 heartbeat IPC: 2.419 cumulative IPC: 1.894 (Simulation time: 04 hr 34 min 30 sec)
Heartbeat CPU 3 instructions: 1130000186 cycles: 570287786 heartbeat IPC: 2.424 cumulative IPC: 1.898 (Simulation time: 04 hr 36 min 27 sec)
Heartbeat CPU 2 instructions: 610000087 cycles: 571889208 heartbeat IPC: 0.9462 cumulative IPC: 0.9482 (Simulation time: 04 hr 37 min 12 sec)
Heartbeat CPU 3 instructions: 1140000189 cycles: 574421215 heartbeat IPC: 2.419 cumulative IPC: 1.902 (Simulation time: 04 hr 38 min 24 sec)
Heartbeat CPU 3 instructions: 1150000189 cycles: 578537814 heartbeat IPC: 2.429 cumulative IPC: 1.905 (Simulation time: 04 hr 40 min 18 sec)
Heartbeat CPU 1 instructions: 190000034 cycles: 582195762 heartbeat IPC: 0.2772 cumulative IPC: 0.2504 (Simulation time: 04 hr 41 min 56 sec)
Heartbeat CPU 3 instructions: 1160000192 cycles: 582683882 heartbeat IPC: 2.412 cumulative IPC: 1.909 (Simulation time: 04 hr 42 min 09 sec)
Heartbeat CPU 0 instructions: 260000031 cycles: 582929336 heartbeat IPC: 0.3846 cumulative IPC: 0.3113 (Simulation time: 04 hr 42 min 15 sec)
Heartbeat CPU 2 instructions: 620000089 cycles: 586681122 heartbeat IPC: 0.676 cumulative IPC: 0.9411 (Simulation time: 04 hr 44 min 02 sec)
Heartbeat CPU 3 instructions: 1170000193 cycles: 586808692 heartbeat IPC: 2.424 cumulative IPC: 1.913 (Simulation time: 04 hr 44 min 06 sec)
Heartbeat CPU 3 instructions: 1180000196 cycles: 590935029 heartbeat IPC: 2.423 cumulative IPC: 1.917 (Simulation time: 04 hr 46 min 04 sec)
Heartbeat CPU 3 instructions: 1190000200 cycles: 595041254 heartbeat IPC: 2.435 cumulative IPC: 1.92 (Simulation time: 04 hr 47 min 59 sec)
Heartbeat CPU 3 instructions: 1200000203 cycles: 599187662 heartbeat IPC: 2.412 cumulative IPC: 1.924 (Simulation time: 04 hr 49 min 52 sec)
Heartbeat CPU 2 instructions: 630000091 cycles: 600536110 heartbeat IPC: 0.7218 cumulative IPC: 0.9358 (Simulation time: 04 hr 50 min 30 sec)
Heartbeat CPU 3 instructions: 1210000206 cycles: 603330461 heartbeat IPC: 2.414 cumulative IPC: 1.927 (Simulation time: 04 hr 51 min 50 sec)
Heartbeat CPU 3 instructions: 1220000207 cycles: 607475210 heartbeat IPC: 2.413 cumulative IPC: 1.931 (Simulation time: 04 hr 53 min 45 sec)
Heartbeat CPU 0 instructions: 270000031 cycles: 610013869 heartbeat IPC: 0.3692 cumulative IPC: 0.314 (Simulation time: 04 hr 54 min 57 sec)
Heartbeat CPU 3 instructions: 1230000207 cycles: 611619033 heartbeat IPC: 2.413 cumulative IPC: 1.934 (Simulation time: 04 hr 55 min 42 sec)
Heartbeat CPU 2 instructions: 640000092 cycles: 614189763 heartbeat IPC: 0.7324 cumulative IPC: 0.9311 (Simulation time: 04 hr 56 min 56 sec)
Heartbeat CPU 3 instructions: 1240000208 cycles: 615778861 heartbeat IPC: 2.404 cumulative IPC: 1.938 (Simulation time: 04 hr 57 min 41 sec)
Heartbeat CPU 1 instructions: 200000036 cycles: 619697156 heartbeat IPC: 0.2667 cumulative IPC: 0.2514 (Simulation time: 04 hr 59 min 32 sec)
Heartbeat CPU 3 instructions: 1250000208 cycles: 619971933 heartbeat IPC: 2.385 cumulative IPC: 1.941 (Simulation time: 04 hr 59 min 40 sec)
Heartbeat CPU 3 instructions: 1260000211 cycles: 624128494 heartbeat IPC: 2.406 cumulative IPC: 1.944 (Simulation time: 05 hr 01 min 39 sec)
Heartbeat CPU 2 instructions: 650000093 cycles: 624592422 heartbeat IPC: 0.9613 cumulative IPC: 0.9316 (Simulation time: 05 hr 01 min 52 sec)
Heartbeat CPU 3 instructions: 1270000214 cycles: 628281915 heartbeat IPC: 2.408 cumulative IPC: 1.947 (Simulation time: 05 hr 03 min 38 sec)
Heartbeat CPU 3 instructions: 1280000217 cycles: 632408565 heartbeat IPC: 2.423 cumulative IPC: 1.95 (Simulation time: 05 hr 05 min 36 sec)
Heartbeat CPU 2 instructions: 660000097 cycles: 634298274 heartbeat IPC: 1.03 cumulative IPC: 0.9332 (Simulation time: 05 hr 06 min 30 sec)
Heartbeat CPU 3 instructions: 1290000218 cycles: 637249819 heartbeat IPC: 2.066 cumulative IPC: 1.951 (Simulation time: 05 hr 07 min 55 sec)
Heartbeat CPU 0 instructions: 280000032 cycles: 637682409 heartbeat IPC: 0.3614 cumulative IPC: 0.3161 (Simulation time: 05 hr 08 min 07 sec)
Heartbeat CPU 3 instructions: 1300000219 cycles: 641785629 heartbeat IPC: 2.205 cumulative IPC: 1.953 (Simulation time: 05 hr 10 min 04 sec)
Heartbeat CPU 2 instructions: 670000098 cycles: 643590202 heartbeat IPC: 1.076 cumulative IPC: 0.9354 (Simulation time: 05 hr 10 min 56 sec)
Heartbeat CPU 3 instructions: 1310000219 cycles: 646421508 heartbeat IPC: 2.157 cumulative IPC: 1.955 (Simulation time: 05 hr 12 min 16 sec)
Heartbeat CPU 3 instructions: 1320000223 cycles: 651066112 heartbeat IPC: 2.153 cumulative IPC: 1.956 (Simulation time: 05 hr 14 min 28 sec)
Heartbeat CPU 2 instructions: 680000099 cycles: 653260731 heartbeat IPC: 1.034 cumulative IPC: 0.9369 (Simulation time: 05 hr 15 min 28 sec)
Heartbeat CPU 3 instructions: 1330000225 cycles: 655695793 heartbeat IPC: 2.16 cumulative IPC: 1.958 (Simulation time: 05 hr 16 min 40 sec)
Heartbeat CPU 1 instructions: 210000039 cycles: 658953438 heartbeat IPC: 0.2547 cumulative IPC: 0.2516 (Simulation time: 05 hr 18 min 15 sec)
Heartbeat CPU 3 instructions: 1340000225 cycles: 660447258 heartbeat IPC: 2.105 cumulative IPC: 1.959 (Simulation time: 05 hr 18 min 58 sec)
Heartbeat CPU 2 instructions: 690000100 cycles: 660510015 heartbeat IPC: 1.379 cumulative IPC: 0.9419 (Simulation time: 05 hr 19 min 00 sec)
Heartbeat CPU 0 instructions: 290000034 cycles: 664623692 heartbeat IPC: 0.3712 cumulative IPC: 0.3184 (Simulation time: 05 hr 20 min 59 sec)
Heartbeat CPU 3 instructions: 1350000226 cycles: 665182854 heartbeat IPC: 2.112 cumulative IPC: 1.96 (Simulation time: 05 hr 21 min 15 sec)
Heartbeat CPU 2 instructions: 700000102 cycles: 668733231 heartbeat IPC: 1.216 cumulative IPC: 0.9454 (Simulation time: 05 hr 22 min 57 sec)
Heartbeat CPU 3 instructions: 1360000227 cycles: 669886457 heartbeat IPC: 2.126 cumulative IPC: 1.961 (Simulation time: 05 hr 23 min 29 sec)
Heartbeat CPU 3 instructions: 1370000229 cycles: 674629394 heartbeat IPC: 2.108 cumulative IPC: 1.962 (Simulation time: 05 hr 25 min 43 sec)
Heartbeat CPU 2 instructions: 710000103 cycles: 679095181 heartbeat IPC: 0.9651 cumulative IPC: 0.9457 (Simulation time: 05 hr 27 min 47 sec)
Heartbeat CPU 3 instructions: 1380000229 cycles: 679420123 heartbeat IPC: 2.087 cumulative IPC: 1.963 (Simulation time: 05 hr 27 min 55 sec)
Heartbeat CPU 3 instructions: 1390000231 cycles: 684128091 heartbeat IPC: 2.124 cumulative IPC: 1.964 (Simulation time: 05 hr 30 min 04 sec)
Heartbeat CPU 3 instructions: 1400000234 cycles: 688718228 heartbeat IPC: 2.179 cumulative IPC: 1.966 (Simulation time: 05 hr 32 min 09 sec)
Heartbeat CPU 0 instructions: 300000038 cycles: 691175908 heartbeat IPC: 0.3766 cumulative IPC: 0.3207 (Simulation time: 05 hr 33 min 19 sec)
Heartbeat CPU 2 instructions: 720000103 cycles: 692973007 heartbeat IPC: 0.7206 cumulative IPC: 0.941 (Simulation time: 05 hr 34 min 09 sec)
Heartbeat CPU 3 instructions: 1410000235 cycles: 693239204 heartbeat IPC: 2.212 cumulative IPC: 1.967 (Simulation time: 05 hr 34 min 17 sec)
Heartbeat CPU 1 instructions: 220000042 cycles: 696202046 heartbeat IPC: 0.2685 cumulative IPC: 0.2525 (Simulation time: 05 hr 35 min 40 sec)
Heartbeat CPU 3 instructions: 1420000235 cycles: 697751587 heartbeat IPC: 2.216 cumulative IPC: 1.969 (Simulation time: 05 hr 36 min 24 sec)
Heartbeat CPU 3 instructions: 1430000238 cycles: 702245618 heartbeat IPC: 2.225 cumulative IPC: 1.971 (Simulation time: 05 hr 38 min 29 sec)
Heartbeat CPU 3 instructions: 1440000240 cycles: 706747515 heartbeat IPC: 2.221 cumulative IPC: 1.972 (Simulation time: 05 hr 40 min 28 sec)
Heartbeat CPU 2 instructions: 730000103 cycles: 707118242 heartbeat IPC: 0.707 cumulative IPC: 0.9362 (Simulation time: 05 hr 40 min 38 sec)
Heartbeat CPU 3 instructions: 1450000242 cycles: 711250944 heartbeat IPC: 2.221 cumulative IPC: 1.974 (Simulation time: 05 hr 42 min 28 sec)
Heartbeat CPU 3 instructions: 1460000243 cycles: 715741323 heartbeat IPC: 2.227 cumulative IPC: 1.976 (Simulation time: 05 hr 44 min 34 sec)
Heartbeat CPU 0 instructions: 310000039 cycles: 717266709 heartbeat IPC: 0.3833 cumulative IPC: 0.3231 (Simulation time: 05 hr 45 min 16 sec)
Heartbeat CPU 3 instructions: 1470000243 cycles: 720250076 heartbeat IPC: 2.218 cumulative IPC: 1.977 (Simulation time: 05 hr 46 min 39 sec)
Heartbeat CPU 2 instructions: 740000104 cycles: 720451516 heartbeat IPC: 0.75 cumulative IPC: 0.9326 (Simulation time: 05 hr 46 min 44 sec)
Heartbeat CPU 3 instructions: 1480000245 cycles: 724741219 heartbeat IPC: 2.227 cumulative IPC: 1.979 (Simulation time: 05 hr 48 min 40 sec)
Heartbeat CPU 3 instructions: 1490000249 cycles: 729232560 heartbeat IPC: 2.227 cumulative IPC: 1.98 (Simulation time: 05 hr 50 min 39 sec)
Heartbeat CPU 1 instructions: 230000046 cycles: 732125495 heartbeat IPC: 0.2784 cumulative IPC: 0.2539 (Simulation time: 05 hr 51 min 59 sec)
Heartbeat CPU 2 instructions: 750000106 cycles: 736123869 heartbeat IPC: 0.6381 cumulative IPC: 0.9262 (Simulation time: 05 hr 53 min 38 sec)
Heartbeat CPU 3 instructions: 1500000251 cycles: 736171220 heartbeat IPC: 1.441 cumulative IPC: 1.975 (Simulation time: 05 hr 53 min 39 sec)
Heartbeat CPU 0 instructions: 320000041 cycles: 743651260 heartbeat IPC: 0.379 cumulative IPC: 0.3251 (Simulation time: 05 hr 56 min 40 sec)
Heartbeat CPU 3 instructions: 1510000252 cycles: 747005197 heartbeat IPC: 0.923 cumulative IPC: 1.959 (Simulation time: 05 hr 58 min 05 sec)
Heartbeat CPU 3 instructions: 1520000255 cycles: 751682138 heartbeat IPC: 2.138 cumulative IPC: 1.96 (Simulation time: 06 hr 00 min 11 sec)
Heartbeat CPU 2 instructions: 760000108 cycles: 752149616 heartbeat IPC: 0.624 cumulative IPC: 0.9195 (Simulation time: 06 hr 00 min 24 sec)
Heartbeat CPU 3 instructions: 1530000258 cycles: 756169209 heartbeat IPC: 2.229 cumulative IPC: 1.962 (Simulation time: 06 hr 02 min 17 sec)
Heartbeat CPU 3 instructions: 1540000260 cycles: 760619819 heartbeat IPC: 2.247 cumulative IPC: 1.964 (Simulation time: 06 hr 04 min 24 sec)
Heartbeat CPU 2 instructions: 770000108 cycles: 762786888 heartbeat IPC: 0.9401 cumulative IPC: 0.9198 (Simulation time: 06 hr 05 min 26 sec)
Heartbeat CPU 3 instructions: 1550000260 cycles: 765091402 heartbeat IPC: 2.236 cumulative IPC: 1.965 (Simulation time: 06 hr 06 min 31 sec)
Heartbeat CPU 3 instructions: 1560000262 cycles: 769560061 heartbeat IPC: 2.238 cumulative IPC: 1.967 (Simulation time: 06 hr 08 min 38 sec)
Heartbeat CPU 1 instructions: 240000049 cycles: 771368363 heartbeat IPC: 0.2548 cumulative IPC: 0.2539 (Simulation time: 06 hr 09 min 29 sec)
Heartbeat CPU 0 instructions: 330000044 cycles: 771862276 heartbeat IPC: 0.3545 cumulative IPC: 0.3262 (Simulation time: 06 hr 09 min 43 sec)
Heartbeat CPU 2 instructions: 780000110 cycles: 772629146 heartbeat IPC: 1.016 cumulative IPC: 0.9211 (Simulation time: 06 hr 10 min 06 sec)
Heartbeat CPU 3 instructions: 1570000266 cycles: 774016521 heartbeat IPC: 2.244 cumulative IPC: 1.969 (Simulation time: 06 hr 10 min 45 sec)
Heartbeat CPU 3 instructions: 1580000267 cycles: 778474643 heartbeat IPC: 2.243 cumulative IPC: 1.97 (Simulation time: 06 hr 12 min 52 sec)
Heartbeat CPU 2 instructions: 790000110 cycles: 782039384 heartbeat IPC: 1.063 cumulative IPC: 0.9228 (Simulation time: 06 hr 14 min 34 sec)
Heartbeat CPU 3 instructions: 1590000270 cycles: 782966490 heartbeat IPC: 2.226 cumulative IPC: 1.972 (Simulation time: 06 hr 15 min 00 sec)
Heartbeat CPU 3 instructions: 1600000270 cycles: 787367738 heartbeat IPC: 2.272 cumulative IPC: 1.974 (Simulation time: 06 hr 17 min 08 sec)
Simulation finished CPU 0 instructions: 250000001 cycles: 764449039 cumulative IPC: 0.327 (Simulation time: 06 hr 17 min 11 sec)
Heartbeat CPU 2 instructions: 800000110 cycles: 790950604 heartbeat IPC: 1.122 cumulative IPC: 0.9252 (Simulation time: 06 hr 18 min 52 sec)
Heartbeat CPU 3 instructions: 1610000271 cycles: 791789925 heartbeat IPC: 2.261 cumulative IPC: 1.975 (Simulation time: 06 hr 19 min 17 sec)
Heartbeat CPU 3 instructions: 1620000271 cycles: 796229092 heartbeat IPC: 2.253 cumulative IPC: 1.977 (Simulation time: 06 hr 21 min 25 sec)
Heartbeat CPU 0 instructions: 340000045 cycles: 798773658 heartbeat IPC: 0.3716 cumulative IPC: 0.3278 (Simulation time: 06 hr 22 min 38 sec)
Heartbeat CPU 3 instructions: 1630000273 cycles: 800640621 heartbeat IPC: 2.267 cumulative IPC: 1.979 (Simulation time: 06 hr 23 min 31 sec)
Heartbeat CPU 2 instructions: 810000114 cycles: 801180633 heartbeat IPC: 0.9775 cumulative IPC: 0.9258 (Simulation time: 06 hr 23 min 46 sec)
Heartbeat CPU 3 instructions: 1640000273 cycles: 805061796 heartbeat IPC: 2.262 cumulative IPC: 1.98 (Simulation time: 06 hr 25 min 35 sec)
Heartbeat CPU 3 instructions: 1650000276 cycles: 809592760 heartbeat IPC: 2.207 cumulative IPC: 1.981 (Simulation time: 06 hr 27 min 36 sec)
Heartbeat CPU 1 instructions: 250000052 cycles: 809640817 heartbeat IPC: 0.2613 cumulative IPC: 0.2543 (Simulation time: 06 hr 27 min 38 sec)
Heartbeat CPU 3 instructions: 1660000280 cycles: 814019558 heartbeat IPC: 2.259 cumulative IPC: 1.983 (Simulation time: 06 hr 29 min 42 sec)
Heartbeat CPU 2 instructions: 820000114 cycles: 815089774 heartbeat IPC: 0.719 cumulative IPC: 0.9222 (Simulation time: 06 hr 30 min 13 sec)
Heartbeat CPU 3 instructions: 1670000281 cycles: 818399221 heartbeat IPC: 2.283 cumulative IPC: 1.985 (Simulation time: 06 hr 31 min 50 sec)
Heartbeat CPU 3 instructions: 1680000281 cycles: 822845188 heartbeat IPC: 2.249 cumulative IPC: 1.986 (Simulation time: 06 hr 33 min 57 sec)
Heartbeat CPU 0 instructions: 350000046 cycles: 825875623 heartbeat IPC: 0.369 cumulative IPC: 0.3292 (Simulation time: 06 hr 35 min 25 sec)
Heartbeat CPU 3 instructions: 1690000283 cycles: 827177233 heartbeat IPC: 2.308 cumulative IPC: 1.988 (Simulation time: 06 hr 36 min 03 sec)
Heartbeat CPU 2 instructions: 830000114 cycles: 828890227 heartbeat IPC: 0.7246 cumulative IPC: 0.9188 (Simulation time: 06 hr 36 min 47 sec)
Heartbeat CPU 3 instructions: 1700000287 cycles: 831594727 heartbeat IPC: 2.264 cumulative IPC: 1.989 (Simulation time: 06 hr 38 min 03 sec)
Heartbeat CPU 3 instructions: 1710000287 cycles: 836006082 heartbeat IPC: 2.267 cumulative IPC: 1.991 (Simulation time: 06 hr 40 min 08 sec)
Heartbeat CPU 2 instructions: 840000116 cycles: 843398820 heartbeat IPC: 0.6892 cumulative IPC: 0.9148 (Simulation time: 06 hr 43 min 21 sec)
Heartbeat CPU 1 instructions: 260000052 cycles: 850171850 heartbeat IPC: 0.2467 cumulative IPC: 0.2539 (Simulation time: 06 hr 46 min 11 sec)
Heartbeat CPU 3 instructions: 1720000288 cycles: 850903579 heartbeat IPC: 0.6713 cumulative IPC: 1.967 (Simulation time: 06 hr 46 min 30 sec)
Heartbeat CPU 2 instructions: 850000117 cycles: 853661044 heartbeat IPC: 0.9744 cumulative IPC: 0.9155 (Simulation time: 06 hr 47 min 46 sec)
Heartbeat CPU 0 instructions: 360000047 cycles: 854811793 heartbeat IPC: 0.3456 cumulative IPC: 0.3298 (Simulation time: 06 hr 48 min 20 sec)
Heartbeat CPU 3 instructions: 1730000288 cycles: 857051788 heartbeat IPC: 1.626 cumulative IPC: 1.965 (Simulation time: 06 hr 49 min 24 sec)
Heartbeat CPU 2 instructions: 860000117 cycles: 866900784 heartbeat IPC: 0.7553 cumulative IPC: 0.913 (Simulation time: 06 hr 53 min 42 sec)
Heartbeat CPU 3 instructions: 1740000291 cycles: 867114973 heartbeat IPC: 0.9937 cumulative IPC: 1.953 (Simulation time: 06 hr 53 min 47 sec)
Heartbeat CPU 3 instructions: 1750000295 cycles: 871994153 heartbeat IPC: 2.05 cumulative IPC: 1.954 (Simulation time: 06 hr 56 min 05 sec)
Heartbeat CPU 3 instructions: 1760000297 cycles: 876644348 heartbeat IPC: 2.15 cumulative IPC: 1.955 (Simulation time: 06 hr 58 min 18 sec)
Heartbeat CPU 2 instructions: 870000117 cycles: 878467638 heartbeat IPC: 0.8645 cumulative IPC: 0.9123 (Simulation time: 06 hr 59 min 10 sec)
Heartbeat CPU 3 instructions: 1770000301 cycles: 881397238 heartbeat IPC: 2.104 cumulative IPC: 1.955 (Simulation time: 07 hr 00 min 33 sec)
Heartbeat CPU 0 instructions: 370000047 cycles: 882127762 heartbeat IPC: 0.3661 cumulative IPC: 0.3309 (Simulation time: 07 hr 00 min 54 sec)
Heartbeat CPU 3 instructions: 1780000302 cycles: 886061665 heartbeat IPC: 2.144 cumulative IPC: 1.956 (Simulation time: 07 hr 02 min 49 sec)
Heartbeat CPU 2 instructions: 880000118 cycles: 888437529 heartbeat IPC: 1.003 cumulative IPC: 0.9134 (Simulation time: 07 hr 03 min 57 sec)
Heartbeat CPU 3 instructions: 1790000304 cycles: 890775445 heartbeat IPC: 2.121 cumulative IPC: 1.957 (Simulation time: 07 hr 05 min 04 sec)
Heartbeat CPU 1 instructions: 270000052 cycles: 891177868 heartbeat IPC: 0.2439 cumulative IPC: 0.2534 (Simulation time: 07 hr 05 min 16 sec)
Heartbeat CPU 3 instructions: 1800000305 cycles: 895450414 heartbeat IPC: 2.139 cumulative IPC: 1.958 (Simulation time: 07 hr 07 min 21 sec)
Heartbeat CPU 2 instructions: 890000119 cycles: 899350449 heartbeat IPC: 0.9163 cumulative IPC: 0.9134 (Simulation time: 07 hr 09 min 11 sec)
Heartbeat CPU 3 instructions: 1810000308 cycles: 900122372 heartbeat IPC: 2.14 cumulative IPC: 1.959 (Simulation time: 07 hr 09 min 34 sec)
Heartbeat CPU 3 instructions: 1820000312 cycles: 904812623 heartbeat IPC: 2.132 cumulative IPC: 1.96 (Simulation time: 07 hr 11 min 44 sec)
Heartbeat CPU 3 instructions: 1830000313 cycles: 909441860 heartbeat IPC: 2.16 cumulative IPC: 1.961 (Simulation time: 07 hr 13 min 56 sec)
Heartbeat CPU 0 instructions: 380000047 cycles: 909577074 heartbeat IPC: 0.3643 cumulative IPC: 0.332 (Simulation time: 07 hr 14 min 00 sec)
Heartbeat CPU 3 instructions: 1840000316 cycles: 914114329 heartbeat IPC: 2.14 cumulative IPC: 1.962 (Simulation time: 07 hr 16 min 05 sec)
Heartbeat CPU 2 instructions: 900000119 cycles: 916135666 heartbeat IPC: 0.5958 cumulative IPC: 0.9074 (Simulation time: 07 hr 17 min 00 sec)
Heartbeat CPU 3 instructions: 1850000316 cycles: 918772338 heartbeat IPC: 2.147 cumulative IPC: 1.963 (Simulation time: 07 hr 18 min 15 sec)
Heartbeat CPU 3 instructions: 1860000319 cycles: 923495076 heartbeat IPC: 2.117 cumulative IPC: 1.964 (Simulation time: 07 hr 20 min 31 sec)
Heartbeat CPU 2 instructions: 910000119 cycles: 926812509 heartbeat IPC: 0.9366 cumulative IPC: 0.9078 (Simulation time: 07 hr 22 min 08 sec)
Heartbeat CPU 3 instructions: 1870000319 cycles: 928200488 heartbeat IPC: 2.125 cumulative IPC: 1.965 (Simulation time: 07 hr 22 min 48 sec)
Heartbeat CPU 1 instructions: 280000054 cycles: 931858197 heartbeat IPC: 0.2458 cumulative IPC: 0.2531 (Simulation time: 07 hr 24 min 33 sec)
Heartbeat CPU 3 instructions: 1880000319 cycles: 932842913 heartbeat IPC: 2.154 cumulative IPC: 1.966 (Simulation time: 07 hr 25 min 02 sec)
Heartbeat CPU 2 instructions: 920000119 cycles: 936734598 heartbeat IPC: 1.008 cumulative IPC: 0.9089 (Simulation time: 07 hr 26 min 54 sec)
Heartbeat CPU 0 instructions: 390000047 cycles: 938311754 heartbeat IPC: 0.348 cumulative IPC: 0.3325 (Simulation time: 07 hr 27 min 34 sec)
Heartbeat CPU 2 instructions: 930000121 cycles: 946889180 heartbeat IPC: 0.9848 cumulative IPC: 0.9097 (Simulation time: 07 hr 31 min 07 sec)
Heartbeat CPU 3 instructions: 1890000320 cycles: 947310366 heartbeat IPC: 0.6912 cumulative IPC: 1.946 (Simulation time: 07 hr 31 min 19 sec)
Heartbeat CPU 3 instructions: 1900000324 cycles: 953962171 heartbeat IPC: 1.503 cumulative IPC: 1.943 (Simulation time: 07 hr 34 min 26 sec)
Heartbeat CPU 2 instructions: 940000125 cycles: 960191735 heartbeat IPC: 0.7517 cumulative IPC: 0.9075 (Simulation time: 07 hr 37 min 03 sec)
Heartbeat CPU 3 instructions: 1910000324 cycles: 964049123 heartbeat IPC: 0.9914 cumulative IPC: 1.932 (Simulation time: 07 hr 38 min 41 sec)
Heartbeat CPU 0 instructions: 400000049 cycles: 965992173 heartbeat IPC: 0.3613 cumulative IPC: 0.3333 (Simulation time: 07 hr 39 min 35 sec)
Heartbeat CPU 3 instructions: 1920000324 cycles: 969262183 heartbeat IPC: 1.918 cumulative IPC: 1.932 (Simulation time: 07 hr 41 min 06 sec)
Heartbeat CPU 2 instructions: 950000127 cycles: 971049623 heartbeat IPC: 0.921 cumulative IPC: 0.9076 (Simulation time: 07 hr 41 min 57 sec)
Heartbeat CPU 1 instructions: 290000056 cycles: 973531942 heartbeat IPC: 0.24 cumulative IPC: 0.2525 (Simulation time: 07 hr 43 min 05 sec)
Heartbeat CPU 3 instructions: 1930000327 cycles: 974561399 heartbeat IPC: 1.887 cumulative IPC: 1.932 (Simulation time: 07 hr 43 min 34 sec)
Heartbeat CPU 3 instructions: 1940000329 cycles: 979780171 heartbeat IPC: 1.916 cumulative IPC: 1.932 (Simulation time: 07 hr 46 min 01 sec)
Heartbeat CPU 3 instructions: 1950000330 cycles: 985006000 heartbeat IPC: 1.914 cumulative IPC: 1.932 (Simulation time: 07 hr 48 min 25 sec)
Heartbeat CPU 2 instructions: 960000130 cycles: 985443483 heartbeat IPC: 0.6947 cumulative IPC: 0.9044 (Simulation time: 07 hr 48 min 37 sec)
Heartbeat CPU 3 instructions: 1960000332 cycles: 990339457 heartbeat IPC: 1.875 cumulative IPC: 1.932 (Simulation time: 07 hr 50 min 56 sec)
Heartbeat CPU 0 instructions: 410000051 cycles: 993506238 heartbeat IPC: 0.3635 cumulative IPC: 0.3342 (Simulation time: 07 hr 52 min 25 sec)
Heartbeat CPU 3 instructions: 1970000334 cycles: 995725117 heartbeat IPC: 1.857 cumulative IPC: 1.931 (Simulation time: 07 hr 53 min 28 sec)
Heartbeat CPU 2 instructions: 970000134 cycles: 996031004 heartbeat IPC: 0.9445 cumulative IPC: 0.9049 (Simulation time: 07 hr 53 min 36 sec)
Heartbeat CPU 3 instructions: 1980000338 cycles: 1001000804 heartbeat IPC: 1.895 cumulative IPC: 1.931 (Simulation time: 07 hr 55 min 57 sec)
Heartbeat CPU 2 instructions: 980000135 cycles: 1005892986 heartbeat IPC: 1.014 cumulative IPC: 0.906 (Simulation time: 07 hr 58 min 12 sec)
Heartbeat CPU 2 instructions: 990000137 cycles: 1015691314 heartbeat IPC: 1.021 cumulative IPC: 0.9071 (Simulation time: 08 hr 02 min 10 sec)
Simulation finished CPU 1 instructions: 250000004 cycles: 993143260 cumulative IPC: 0.2517 (Simulation time: 08 hr 02 min 24 sec)
Simulation complete CPU 3 instructions: 1898238918 cycles: 993143260 cumulative IPC: 1.911 (Simulation time: 08 hr 02 min 24 sec)
Simulation complete CPU 2 instructions: 900957515 cycles: 993143260 cumulative IPC: 0.9072 (Simulation time: 08 hr 02 min 24 sec)
Simulation complete CPU 1 instructions: 250000004 cycles: 993143260 cumulative IPC: 0.2517 (Simulation time: 08 hr 02 min 24 sec)
Simulation complete CPU 0 instructions: 330546182 cycles: 993143260 cumulative IPC: 0.3328 (Simulation time: 08 hr 02 min 24 sec)

ChampSim completed all CPUs

=== Simulation ===
CPU 0 runs /home/faculty/p/pgratz/dpc3_traces/602.gcc_s-734B.champsimtrace.xz
CPU 1 runs /home/faculty/p/pgratz/dpc3_traces/620.omnetpp_s-874B.champsimtrace.xz
CPU 2 runs /home/faculty/p/pgratz/dpc3_traces/623.xalancbmk_s-700B.champsimtrace.xz
CPU 3 runs /home/faculty/p/pgratz/dpc3_traces/625.x264_s-18B.champsimtrace.xz

Total Simulation Statistics (not including warmup)

CPU 3 cumulative IPC: 1.911 instructions: 1898238918 cycles: 993143260
CPU 3 Branch Prediction Accuracy: 91.13% MPKI: 3.532 Average ROB Occupancy at Mispredict: 93.44
Branch type MPKI
BRANCH_DIRECT_JUMP: 0.00057
BRANCH_INDIRECT: 0.0007307
BRANCH_CONDITIONAL: 3.437
BRANCH_DIRECT_CALL: 0.0002487
BRANCH_INDIRECT_CALL: 0.01704
BRANCH_RETURN: 0.07614


CPU 2 cumulative IPC: 0.9072 instructions: 900957515 cycles: 993143260
CPU 2 Branch Prediction Accuracy: 96.38% MPKI: 10.33 Average ROB Occupancy at Mispredict: 24.45
Branch type MPKI
BRANCH_DIRECT_JUMP: 0.1103
BRANCH_INDIRECT: 0.3459
BRANCH_CONDITIONAL: 8.048
BRANCH_DIRECT_CALL: 0.0002486
BRANCH_INDIRECT_CALL: 0.3752
BRANCH_RETURN: 1.45


CPU 1 cumulative IPC: 0.2517 instructions: 250000004 cycles: 993143260
CPU 1 Branch Prediction Accuracy: 94.15% MPKI: 12.17 Average ROB Occupancy at Mispredict: 52.85
Branch type MPKI
BRANCH_DIRECT_JUMP: 0.9272
BRANCH_INDIRECT: 0.125
BRANCH_CONDITIONAL: 9.994
BRANCH_DIRECT_CALL: 0.000104
BRANCH_INDIRECT_CALL: 0.7322
BRANCH_RETURN: 0.3962


CPU 0 cumulative IPC: 0.3328 instructions: 330546182 cycles: 993143260
CPU 0 Branch Prediction Accuracy: 94.59% MPKI: 12.94 Average ROB Occupancy at Mispredict: 49.18
Branch type MPKI
BRANCH_DIRECT_JUMP: 0.1375
BRANCH_INDIRECT: 0
BRANCH_CONDITIONAL: 12.71
BRANCH_DIRECT_CALL: 0.09121
BRANCH_INDIRECT_CALL: 1.513e-05
BRANCH_RETURN: 5.143e-05

cpu3->cpu3_STLB TOTAL        ACCESS:    1986020 HIT:    1954982 MISS:      31038 MSHR_MERGE:          0
cpu3->cpu3_STLB LOAD         ACCESS:    1986020 HIT:    1954982 MISS:      31038 MSHR_MERGE:          0
cpu3->cpu3_STLB RFO          ACCESS:          0 HIT:          0 MISS:          0 MSHR_MERGE:          0
cpu3->cpu3_STLB PREFETCH     ACCESS:          0 HIT:          0 MISS:          0 MSHR_MERGE:          0
cpu3->cpu3_STLB WRITE        ACCESS:          0 HIT:          0 MISS:          0 MSHR_MERGE:          0
cpu3->cpu3_STLB TRANSLATION  ACCESS:          0 HIT:          0 MISS:          0 MSHR_MERGE:          0
cpu3->cpu3_STLB PREFETCH REQUESTED:          0 ISSUED:          0 USEFUL:          0 USELESS:          0
cpu3->cpu3_STLB AVERAGE MISS LATENCY: 627 cycles
cpu3->cpu3_L2C TOTAL        ACCESS:    8417647 HIT:    6036234 MISS:    2381413 MSHR_MERGE:          0
cpu3->cpu3_L2C LOAD         ACCESS:    6010407 HIT:    4416236 MISS:    1594171 MSHR_MERGE:          0
cpu3->cpu3_L2C RFO          ACCESS:    1057593 HIT:     317492 MISS:     740101 MSHR_MERGE:          0
cpu3->cpu3_L2C PREFETCH     ACCESS:          0 HIT:          0 MISS:          0 MSHR_MERGE:          0
cpu3->cpu3_L2C WRITE        ACCESS:    1302828 HIT:    1301015 MISS:       1813 MSHR_MERGE:          0
cpu3->cpu3_L2C TRANSLATION  ACCESS:      46819 HIT:       1491 MISS:      45328 MSHR_MERGE:          0
cpu3->cpu3_L2C PREFETCH REQUESTED:          0 ISSUED:          0 USEFUL:          0 USELESS:          0
cpu3->cpu3_L2C AVERAGE MISS LATENCY: 280.2 cycles
cpu3->cpu3_L1I TOTAL        ACCESS:  208046557 HIT:  202179128 MISS:    5867429 MSHR_MERGE:    2262950
cpu3->cpu3_L1I LOAD         ACCESS:  208046557 HIT:  202179128 MISS:    5867429 MSHR_MERGE:    2262950
cpu3->cpu3_L1I RFO          ACCESS:          0 HIT:          0 MISS:          0 MSHR_MERGE:          0
cpu3->cpu3_L1I PREFETCH     ACCESS:          0 HIT:          0 MISS:          0 MSHR_MERGE:          0
cpu3->cpu3_L1I WRITE        ACCESS:          0 HIT:          0 MISS:          0 MSHR_MERGE:          0
cpu3->cpu3_L1I TRANSLATION  ACCESS:          0 HIT:          0 MISS:          0 MSHR_MERGE:          0
cpu3->cpu3_L1I PREFETCH REQUESTED:          0 ISSUED:          0 USEFUL:          0 USELESS:          0
cpu3->cpu3_L1I AVERAGE MISS LATENCY: 9.959 cycles
cpu3->cpu3_L1D TOTAL        ACCESS:  386271700 HIT:  375533405 MISS:   10738295 MSHR_MERGE:    7227897
cpu3->cpu3_L1D LOAD         ACCESS:  245440831 HIT:  240873380 MISS:    4567451 MSHR_MERGE:    2161509
cpu3->cpu3_L1D RFO          ACCESS:          0 HIT:          0 MISS:          0 MSHR_MERGE:          0
cpu3->cpu3_L1D PREFETCH     ACCESS:          0 HIT:          0 MISS:          0 MSHR_MERGE:          0
cpu3->cpu3_L1D WRITE        ACCESS:  140768693 HIT:  134646457 MISS:    6122236 MSHR_MERGE:    5064599
cpu3->cpu3_L1D TRANSLATION  ACCESS:      62176 HIT:      13568 MISS:      48608 MSHR_MERGE:       1789
cpu3->cpu3_L1D PREFETCH REQUESTED:          0 ISSUED:          0 USEFUL:          0 USELESS:          0
cpu3->cpu3_L1D AVERAGE MISS LATENCY: 195.9 cycles
cpu3->cpu3_ITLB TOTAL        ACCESS:  172938322 HIT:  172926680 MISS:      11642 MSHR_MERGE:       7873
cpu3->cpu3_ITLB LOAD         ACCESS:  172938322 HIT:  172926680 MISS:      11642 MSHR_MERGE:       7873
cpu3->cpu3_ITLB RFO          ACCESS:          0 HIT:          0 MISS:          0 MSHR_MERGE:          0
cpu3->cpu3_ITLB PREFETCH     ACCESS:          0 HIT:          0 MISS:          0 MSHR_MERGE:          0
cpu3->cpu3_ITLB WRITE        ACCESS:          0 HIT:          0 MISS:          0 MSHR_MERGE:          0
cpu3->cpu3_ITLB TRANSLATION  ACCESS:          0 HIT:          0 MISS:          0 MSHR_MERGE:          0
cpu3->cpu3_ITLB PREFETCH REQUESTED:          0 ISSUED:          0 USEFUL:          0 USELESS:          0
cpu3->cpu3_ITLB AVERAGE MISS LATENCY: 102.8 cycles
cpu3->cpu3_DTLB TOTAL        ACCESS:  349087139 HIT:  345406396 MISS:    3680743 MSHR_MERGE:    1698492
cpu3->cpu3_DTLB LOAD         ACCESS:  349087139 HIT:  345406396 MISS:    3680743 MSHR_MERGE:    1698492
cpu3->cpu3_DTLB RFO          ACCESS:          0 HIT:          0 MISS:          0 MSHR_MERGE:          0
cpu3->cpu3_DTLB PREFETCH     ACCESS:          0 HIT:          0 MISS:          0 MSHR_MERGE:          0
cpu3->cpu3_DTLB WRITE        ACCESS:          0 HIT:          0 MISS:          0 MSHR_MERGE:          0
cpu3->cpu3_DTLB TRANSLATION  ACCESS:          0 HIT:          0 MISS:          0 MSHR_MERGE:          0
cpu3->cpu3_DTLB PREFETCH REQUESTED:          0 ISSUED:          0 USEFUL:          0 USELESS:          0
cpu3->cpu3_DTLB AVERAGE MISS LATENCY: 14.44 cycles
cpu2->cpu2_STLB TOTAL        ACCESS:   24451655 HIT:   23060722 MISS:    1390933 MSHR_MERGE:          0
cpu2->cpu2_STLB LOAD         ACCESS:   24451655 HIT:   23060722 MISS:    1390933 MSHR_MERGE:          0
cpu2->cpu2_STLB RFO          ACCESS:          0 HIT:          0 MISS:          0 MSHR_MERGE:          0
cpu2->cpu2_STLB PREFETCH     ACCESS:          0 HIT:          0 MISS:          0 MSHR_MERGE:          0
cpu2->cpu2_STLB WRITE        ACCESS:          0 HIT:          0 MISS:          0 MSHR_MERGE:          0
cpu2->cpu2_STLB TRANSLATION  ACCESS:          0 HIT:          0 MISS:          0 MSHR_MERGE:          0
cpu2->cpu2_STLB PREFETCH REQUESTED:          0 ISSUED:          0 USEFUL:          0 USELESS:          0
cpu2->cpu2_STLB AVERAGE MISS LATENCY: 95.46 cycles
cpu2->cpu2_L2C TOTAL        ACCESS:   48964593 HIT:   44761075 MISS:    4203518 MSHR_MERGE:          0
cpu2->cpu2_L2C LOAD         ACCESS:   42694179 HIT:   40196390 MISS:    2497789 MSHR_MERGE:          0
cpu2->cpu2_L2C RFO          ACCESS:    1408087 HIT:     236630 MISS:    1171457 MSHR_MERGE:          0
cpu2->cpu2_L2C PREFETCH     ACCESS:          0 HIT:          0 MISS:          0 MSHR_MERGE:          0
cpu2->cpu2_L2C WRITE        ACCESS:    2163307 HIT:    2163226 MISS:         81 MSHR_MERGE:          0
cpu2->cpu2_L2C TRANSLATION  ACCESS:    2699020 HIT:    2164829 MISS:     534191 MSHR_MERGE:          0
cpu2->cpu2_L2C PREFETCH REQUESTED:          0 ISSUED:          0 USEFUL:          0 USELESS:          0
cpu2->cpu2_L2C AVERAGE MISS LATENCY: 162.2 cycles
cpu2->cpu2_L1I TOTAL        ACCESS:  159700420 HIT:  156580527 MISS:    3119893 MSHR_MERGE:     863707
cpu2->cpu2_L1I LOAD         ACCESS:  159700420 HIT:  156580527 MISS:    3119893 MSHR_MERGE:     863707
cpu2->cpu2_L1I RFO          ACCESS:          0 HIT:          0 MISS:          0 MSHR_MERGE:          0
cpu2->cpu2_L1I PREFETCH     ACCESS:          0 HIT:          0 MISS:          0 MSHR_MERGE:          0
cpu2->cpu2_L1I WRITE        ACCESS:          0 HIT:          0 MISS:          0 MSHR_MERGE:          0
cpu2->cpu2_L1I TRANSLATION  ACCESS:          0 HIT:          0 MISS:          0 MSHR_MERGE:          0
cpu2->cpu2_L1I PREFETCH REQUESTED:          0 ISSUED:          0 USEFUL:          0 USELESS:          0
cpu2->cpu2_L1I AVERAGE MISS LATENCY: 11.48 cycles
cpu2->cpu2_L1D TOTAL        ACCESS:  268648370 HIT:  203412299 MISS:   65236071 MSHR_MERGE:   20690951
cpu2->cpu2_L1D LOAD         ACCESS:  201861383 HIT:  144810966 MISS:   57050417 MSHR_MERGE:   16612409
cpu2->cpu2_L1D RFO          ACCESS:          0 HIT:          0 MISS:          0 MSHR_MERGE:          0
cpu2->cpu2_L1D PREFETCH     ACCESS:          0 HIT:          0 MISS:          0 MSHR_MERGE:          0
cpu2->cpu2_L1D WRITE        ACCESS:   63999921 HIT:   58516762 MISS:    5483159 MSHR_MERGE:    4075067
cpu2->cpu2_L1D TRANSLATION  ACCESS:    2787066 HIT:      84571 MISS:    2702495 MSHR_MERGE:       3475
cpu2->cpu2_L1D PREFETCH REQUESTED:          0 ISSUED:          0 USEFUL:          0 USELESS:          0
cpu2->cpu2_L1D AVERAGE MISS LATENCY: 23.33 cycles
cpu2->cpu2_ITLB TOTAL        ACCESS:  149438257 HIT:  148685388 MISS:     752869 MSHR_MERGE:     414758
cpu2->cpu2_ITLB LOAD         ACCESS:  149438257 HIT:  148685388 MISS:     752869 MSHR_MERGE:     414758
cpu2->cpu2_ITLB RFO          ACCESS:          0 HIT:          0 MISS:          0 MSHR_MERGE:          0
cpu2->cpu2_ITLB PREFETCH     ACCESS:          0 HIT:          0 MISS:          0 MSHR_MERGE:          0
cpu2->cpu2_ITLB WRITE        ACCESS:          0 HIT:          0 MISS:          0 MSHR_MERGE:          0
cpu2->cpu2_ITLB TRANSLATION  ACCESS:          0 HIT:          0 MISS:          0 MSHR_MERGE:          0
cpu2->cpu2_ITLB PREFETCH REQUESTED:          0 ISSUED:          0 USEFUL:          0 USELESS:          0
cpu2->cpu2_ITLB AVERAGE MISS LATENCY: 12.78 cycles
cpu2->cpu2_DTLB TOTAL        ACCESS:  239178663 HIT:  205017765 MISS:   34160898 MSHR_MERGE:   10047355
cpu2->cpu2_DTLB LOAD         ACCESS:  239178663 HIT:  205017765 MISS:   34160898 MSHR_MERGE:   10047355
cpu2->cpu2_DTLB RFO          ACCESS:          0 HIT:          0 MISS:          0 MSHR_MERGE:          0
cpu2->cpu2_DTLB PREFETCH     ACCESS:          0 HIT:          0 MISS:          0 MSHR_MERGE:          0
cpu2->cpu2_DTLB WRITE        ACCESS:          0 HIT:          0 MISS:          0 MSHR_MERGE:          0
cpu2->cpu2_DTLB TRANSLATION  ACCESS:          0 HIT:          0 MISS:          0 MSHR_MERGE:          0
cpu2->cpu2_DTLB PREFETCH REQUESTED:          0 ISSUED:          0 USEFUL:          0 USELESS:          0
cpu2->cpu2_DTLB AVERAGE MISS LATENCY: 10.21 cycles
cpu1->cpu1_STLB TOTAL        ACCESS:    5156432 HIT:    4086129 MISS:    1070303 MSHR_MERGE:          0
cpu1->cpu1_STLB LOAD         ACCESS:    5156432 HIT:    4086129 MISS:    1070303 MSHR_MERGE:          0
cpu1->cpu1_STLB RFO          ACCESS:          0 HIT:          0 MISS:          0 MSHR_MERGE:          0
cpu1->cpu1_STLB PREFETCH     ACCESS:          0 HIT:          0 MISS:          0 MSHR_MERGE:          0
cpu1->cpu1_STLB WRITE        ACCESS:          0 HIT:          0 MISS:          0 MSHR_MERGE:          0
cpu1->cpu1_STLB TRANSLATION  ACCESS:          0 HIT:          0 MISS:          0 MSHR_MERGE:          0
cpu1->cpu1_STLB PREFETCH REQUESTED:          0 ISSUED:          0 USEFUL:          0 USELESS:          0
cpu1->cpu1_STLB AVERAGE MISS LATENCY: 418.9 cycles
cpu1->cpu1_L2C TOTAL        ACCESS:    9676016 HIT:    4495332 MISS:    5180684 MSHR_MERGE:          0
cpu1->cpu1_L2C LOAD         ACCESS:    4311768 HIT:    1403782 MISS:    2907986 MSHR_MERGE:          0
cpu1->cpu1_L2C RFO          ACCESS:     647209 HIT:     180712 MISS:     466497 MSHR_MERGE:          0
cpu1->cpu1_L2C PREFETCH     ACCESS:          0 HIT:          0 MISS:          0 MSHR_MERGE:          0
cpu1->cpu1_L2C WRITE        ACCESS:    2375374 HIT:    2371328 MISS:       4046 MSHR_MERGE:          0
cpu1->cpu1_L2C TRANSLATION  ACCESS:    2341665 HIT:     539510 MISS:    1802155 MSHR_MERGE:          0
cpu1->cpu1_L2C PREFETCH REQUESTED:          0 ISSUED:          0 USEFUL:          0 USELESS:          0
cpu1->cpu1_L2C AVERAGE MISS LATENCY: 224.4 cycles
cpu1->cpu1_L1I TOTAL        ACCESS:   34637266 HIT:   34508899 MISS:     128367 MSHR_MERGE:      31889
cpu1->cpu1_L1I LOAD         ACCESS:   34637266 HIT:   34508899 MISS:     128367 MSHR_MERGE:      31889
cpu1->cpu1_L1I RFO          ACCESS:          0 HIT:          0 MISS:          0 MSHR_MERGE:          0
cpu1->cpu1_L1I PREFETCH     ACCESS:          0 HIT:          0 MISS:          0 MSHR_MERGE:          0
cpu1->cpu1_L1I WRITE        ACCESS:          0 HIT:          0 MISS:          0 MSHR_MERGE:          0
cpu1->cpu1_L1I TRANSLATION  ACCESS:          0 HIT:          0 MISS:          0 MSHR_MERGE:          0
cpu1->cpu1_L1I PREFETCH REQUESTED:          0 ISSUED:          0 USEFUL:          0 USELESS:          0
cpu1->cpu1_L1I AVERAGE MISS LATENCY: 45.82 cycles
cpu1->cpu1_L1D TOTAL        ACCESS:  100539291 HIT:   90861985 MISS:    9677306 MSHR_MERGE:    2473128
cpu1->cpu1_L1D LOAD         ACCESS:   52423124 HIT:   46960809 MISS:    5462315 MSHR_MERGE:    1247015
cpu1->cpu1_L1D RFO          ACCESS:          0 HIT:          0 MISS:          0 MSHR_MERGE:          0
cpu1->cpu1_L1D PREFETCH     ACCESS:          0 HIT:          0 MISS:          0 MSHR_MERGE:          0
cpu1->cpu1_L1D WRITE        ACCESS:   45567379 HIT:   43701190 MISS:    1866189 MSHR_MERGE:    1218976
cpu1->cpu1_L1D TRANSLATION  ACCESS:    2548788 HIT:     199986 MISS:    2348802 MSHR_MERGE:       7137
cpu1->cpu1_L1D PREFETCH REQUESTED:          0 ISSUED:          0 USEFUL:          0 USELESS:          0
cpu1->cpu1_L1D AVERAGE MISS LATENCY: 169.5 cycles
cpu1->cpu1_ITLB TOTAL        ACCESS:   30583051 HIT:   29824661 MISS:     758390 MSHR_MERGE:     363825
cpu1->cpu1_ITLB LOAD         ACCESS:   30583051 HIT:   29824661 MISS:     758390 MSHR_MERGE:     363825
cpu1->cpu1_ITLB RFO          ACCESS:          0 HIT:          0 MISS:          0 MSHR_MERGE:          0
cpu1->cpu1_ITLB PREFETCH     ACCESS:          0 HIT:          0 MISS:          0 MSHR_MERGE:          0
cpu1->cpu1_ITLB WRITE        ACCESS:          0 HIT:          0 MISS:          0 MSHR_MERGE:          0
cpu1->cpu1_ITLB TRANSLATION  ACCESS:          0 HIT:          0 MISS:          0 MSHR_MERGE:          0
cpu1->cpu1_ITLB PREFETCH REQUESTED:          0 ISSUED:          0 USEFUL:          0 USELESS:          0
cpu1->cpu1_ITLB AVERAGE MISS LATENCY: 10.87 cycles
cpu1->cpu1_DTLB TOTAL        ACCESS:   92578155 HIT:   86994091 MISS:    5584064 MSHR_MERGE:     822197
cpu1->cpu1_DTLB LOAD         ACCESS:   92578155 HIT:   86994091 MISS:    5584064 MSHR_MERGE:     822197
cpu1->cpu1_DTLB RFO          ACCESS:          0 HIT:          0 MISS:          0 MSHR_MERGE:          0
cpu1->cpu1_DTLB PREFETCH     ACCESS:          0 HIT:          0 MISS:          0 MSHR_MERGE:          0
cpu1->cpu1_DTLB WRITE        ACCESS:          0 HIT:          0 MISS:          0 MSHR_MERGE:          0
cpu1->cpu1_DTLB TRANSLATION  ACCESS:          0 HIT:          0 MISS:          0 MSHR_MERGE:          0
cpu1->cpu1_DTLB PREFETCH REQUESTED:          0 ISSUED:          0 USEFUL:          0 USELESS:          0
cpu1->cpu1_DTLB AVERAGE MISS LATENCY: 98.9 cycles
cpu0->cpu0_STLB TOTAL        ACCESS:     253488 HIT:     169947 MISS:      83541 MSHR_MERGE:          0
cpu0->cpu0_STLB LOAD         ACCESS:     253488 HIT:     169947 MISS:      83541 MSHR_MERGE:          0
cpu0->cpu0_STLB RFO          ACCESS:          0 HIT:          0 MISS:          0 MSHR_MERGE:          0
cpu0->cpu0_STLB PREFETCH     ACCESS:          0 HIT:          0 MISS:          0 MSHR_MERGE:          0
cpu0->cpu0_STLB WRITE        ACCESS:          0 HIT:          0 MISS:          0 MSHR_MERGE:          0
cpu0->cpu0_STLB TRANSLATION  ACCESS:          0 HIT:          0 MISS:          0 MSHR_MERGE:          0
cpu0->cpu0_STLB PREFETCH REQUESTED:          0 ISSUED:          0 USEFUL:          0 USELESS:          0
cpu0->cpu0_STLB AVERAGE MISS LATENCY: 414.6 cycles
cpu0->cpu0_L2C TOTAL        ACCESS:    5902595 HIT:    2818573 MISS:    3084022 MSHR_MERGE:          0
cpu0->cpu0_L2C LOAD         ACCESS:    5698677 HIT:    2740608 MISS:    2958069 MSHR_MERGE:          0
cpu0->cpu0_L2C RFO          ACCESS:       5919 HIT:       1226 MISS:       4693 MSHR_MERGE:          0
cpu0->cpu0_L2C PREFETCH     ACCESS:          0 HIT:          0 MISS:          0 MSHR_MERGE:          0
cpu0->cpu0_L2C WRITE        ACCESS:      70623 HIT:      70541 MISS:         82 MSHR_MERGE:          0
cpu0->cpu0_L2C TRANSLATION  ACCESS:     127376 HIT:       6198 MISS:     121178 MSHR_MERGE:          0
cpu0->cpu0_L2C PREFETCH REQUESTED:          0 ISSUED:          0 USEFUL:          0 USELESS:          0
cpu0->cpu0_L2C AVERAGE MISS LATENCY: 252.2 cycles
cpu0->cpu0_L1I TOTAL        ACCESS:    1245767 HIT:    1245713 MISS:         54 MSHR_MERGE:          8
cpu0->cpu0_L1I LOAD         ACCESS:    1245767 HIT:    1245713 MISS:         54 MSHR_MERGE:          8
cpu0->cpu0_L1I RFO          ACCESS:          0 HIT:          0 MISS:          0 MSHR_MERGE:          0
cpu0->cpu0_L1I PREFETCH     ACCESS:          0 HIT:          0 MISS:          0 MSHR_MERGE:          0
cpu0->cpu0_L1I WRITE        ACCESS:          0 HIT:          0 MISS:          0 MSHR_MERGE:          0
cpu0->cpu0_L1I TRANSLATION  ACCESS:          0 HIT:          0 MISS:          0 MSHR_MERGE:          0
cpu0->cpu0_L1I PREFETCH REQUESTED:          0 ISSUED:          0 USEFUL:          0 USELESS:          0
cpu0->cpu0_L1I AVERAGE MISS LATENCY: 236.4 cycles
cpu0->cpu0_L1D TOTAL        ACCESS:  100812899 HIT:   87194542 MISS:   13618357 MSHR_MERGE:    7786428
cpu0->cpu0_L1D LOAD         ACCESS:   67915824 HIT:   54456207 MISS:   13459617 MSHR_MERGE:    7760986
cpu0->cpu0_L1D RFO          ACCESS:          0 HIT:          0 MISS:          0 MSHR_MERGE:          0
cpu0->cpu0_L1D PREFETCH     ACCESS:          0 HIT:          0 MISS:          0 MSHR_MERGE:          0
cpu0->cpu0_L1D WRITE        ACCESS:   32723672 HIT:   32692439 MISS:      31233 MSHR_MERGE:      25311
cpu0->cpu0_L1D TRANSLATION  ACCESS:     173403 HIT:      45896 MISS:     127507 MSHR_MERGE:        131
cpu0->cpu0_L1D PREFETCH REQUESTED:          0 ISSUED:          0 USEFUL:          0 USELESS:          0
cpu0->cpu0_L1D AVERAGE MISS LATENCY: 142.1 cycles
cpu0->cpu0_ITLB TOTAL        ACCESS:    1155431 HIT:    1155423 MISS:          8 MSHR_MERGE:          3
cpu0->cpu0_ITLB LOAD         ACCESS:    1155431 HIT:    1155423 MISS:          8 MSHR_MERGE:          3
cpu0->cpu0_ITLB RFO          ACCESS:          0 HIT:          0 MISS:          0 MSHR_MERGE:          0
cpu0->cpu0_ITLB PREFETCH     ACCESS:          0 HIT:          0 MISS:          0 MSHR_MERGE:          0
cpu0->cpu0_ITLB WRITE        ACCESS:          0 HIT:          0 MISS:          0 MSHR_MERGE:          0
cpu0->cpu0_ITLB TRANSLATION  ACCESS:          0 HIT:          0 MISS:          0 MSHR_MERGE:          0
cpu0->cpu0_ITLB PREFETCH REQUESTED:          0 ISSUED:          0 USEFUL:          0 USELESS:          0
cpu0->cpu0_ITLB AVERAGE MISS LATENCY: 1003 cycles
cpu0->cpu0_DTLB TOTAL        ACCESS:  100005343 HIT:   99520096 MISS:     485247 MSHR_MERGE:     231764
cpu0->cpu0_DTLB LOAD         ACCESS:  100005343 HIT:   99520096 MISS:     485247 MSHR_MERGE:     231764
cpu0->cpu0_DTLB RFO          ACCESS:          0 HIT:          0 MISS:          0 MSHR_MERGE:          0
cpu0->cpu0_DTLB PREFETCH     ACCESS:          0 HIT:          0 MISS:          0 MSHR_MERGE:          0
cpu0->cpu0_DTLB WRITE        ACCESS:          0 HIT:          0 MISS:          0 MSHR_MERGE:          0
cpu0->cpu0_DTLB TRANSLATION  ACCESS:          0 HIT:          0 MISS:          0 MSHR_MERGE:          0
cpu0->cpu0_DTLB PREFETCH REQUESTED:          0 ISSUED:          0 USEFUL:          0 USELESS:          0
cpu0->cpu0_DTLB AVERAGE MISS LATENCY: 142 cycles
cpu0->LLC TOTAL        ACCESS:    3122440 HIT:      17185 MISS:    3105255 MSHR_MERGE:          0
cpu0->LLC LOAD         ACCESS:    2958069 HIT:       2890 MISS:    2955179 MSHR_MERGE:          0
cpu0->LLC RFO          ACCESS:       4693 HIT:         19 MISS:       4674 MSHR_MERGE:          0
cpu0->LLC PREFETCH     ACCESS:          0 HIT:          0 MISS:          0 MSHR_MERGE:          0
cpu0->LLC WRITE        ACCESS:      38500 HIT:      14010 MISS:      24490 MSHR_MERGE:          0
cpu0->LLC TRANSLATION  ACCESS:     121178 HIT:        266 MISS:     120912 MSHR_MERGE:          0
cpu0->LLC PREFETCH REQUESTED:          0 ISSUED:          0 USEFUL:          0 USELESS:          0
cpu0->LLC AVERAGE MISS LATENCY: 987.2 cycles
cpu1->LLC TOTAL        ACCESS:    6860692 HIT:    1939441 MISS:    4921251 MSHR_MERGE:          0
cpu1->LLC LOAD         ACCESS:    2907986 HIT:     338773 MISS:    2569213 MSHR_MERGE:          0
cpu1->LLC RFO          ACCESS:     466497 HIT:      99327 MISS:     367170 MSHR_MERGE:          0
cpu1->LLC PREFETCH     ACCESS:          0 HIT:          0 MISS:          0 MSHR_MERGE:          0
cpu1->LLC WRITE        ACCESS:    1684054 HIT:    1320387 MISS:     363667 MSHR_MERGE:          0
cpu1->LLC TRANSLATION  ACCESS:    1802155 HIT:     180954 MISS:    1621201 MSHR_MERGE:          0
cpu1->LLC PREFETCH REQUESTED:          0 ISSUED:          0 USEFUL:          0 USELESS:          0
cpu1->LLC AVERAGE MISS LATENCY: 622.9 cycles
cpu2->LLC TOTAL        ACCESS:    5626347 HIT:    3058252 MISS:    2568095 MSHR_MERGE:          0
cpu2->LLC LOAD         ACCESS:    2497789 HIT:    1920517 MISS:     577272 MSHR_MERGE:          0
cpu2->LLC RFO          ACCESS:    1171457 HIT:      16877 MISS:    1154580 MSHR_MERGE:          0
cpu2->LLC PREFETCH     ACCESS:          0 HIT:          0 MISS:          0 MSHR_MERGE:          0
cpu2->LLC WRITE        ACCESS:    1422910 HIT:     938263 MISS:     484647 MSHR_MERGE:          0
cpu2->LLC TRANSLATION  ACCESS:     534191 HIT:     182595 MISS:     351596 MSHR_MERGE:          0
cpu2->LLC PREFETCH REQUESTED:          0 ISSUED:          0 USEFUL:          0 USELESS:          0
cpu2->LLC AVERAGE MISS LATENCY: 1194 cycles
cpu3->LLC TOTAL        ACCESS:    3268185 HIT:     520431 MISS:    2747754 MSHR_MERGE:          0
cpu3->LLC LOAD         ACCESS:    1594170 HIT:      24320 MISS:    1569850 MSHR_MERGE:          0
cpu3->LLC RFO          ACCESS:     740100 HIT:       3712 MISS:     736388 MSHR_MERGE:          0
cpu3->LLC PREFETCH     ACCESS:          0 HIT:          0 MISS:          0 MSHR_MERGE:          0
cpu3->LLC WRITE        ACCESS:     888587 HIT:     492348 MISS:     396239 MSHR_MERGE:          0
cpu3->LLC TRANSLATION  ACCESS:      45328 HIT:         51 MISS:      45277 MSHR_MERGE:          0
cpu3->LLC PREFETCH REQUESTED:          0 ISSUED:          0 USEFUL:          0 USELESS:          0
cpu3->LLC AVERAGE MISS LATENCY: 1116 cycles

Region of Interest Statistics

CPU 3 cumulative IPC: 2.141 instructions: 250000000 cycles: 116759237
CPU 3 Branch Prediction Accuracy: 89.53% MPKI: 4.853 Average ROB Occupancy at Mispredict: 66.03
Branch type MPKI
BRANCH_DIRECT_JUMP: 0.001928
BRANCH_INDIRECT: 0.002708
BRANCH_CONDITIONAL: 4.689
BRANCH_DIRECT_CALL: 0.00102
BRANCH_INDIRECT_CALL: 0.05764
BRANCH_RETURN: 0.1004


CPU 2 cumulative IPC: 0.8854 instructions: 250000001 cycles: 282372765
CPU 2 Branch Prediction Accuracy: 96.12% MPKI: 10.9 Average ROB Occupancy at Mispredict: 23.98
Branch type MPKI
BRANCH_DIRECT_JUMP: 0.1185
BRANCH_INDIRECT: 0.374
BRANCH_CONDITIONAL: 8.451
BRANCH_DIRECT_CALL: 0.0005
BRANCH_INDIRECT_CALL: 0.4048
BRANCH_RETURN: 1.552


CPU 1 cumulative IPC: 0.2517 instructions: 250000004 cycles: 993143260
CPU 1 Branch Prediction Accuracy: 94.15% MPKI: 12.17 Average ROB Occupancy at Mispredict: 52.85
Branch type MPKI
BRANCH_DIRECT_JUMP: 0.9272
BRANCH_INDIRECT: 0.125
BRANCH_CONDITIONAL: 9.994
BRANCH_DIRECT_CALL: 0.000104
BRANCH_INDIRECT_CALL: 0.7322
BRANCH_RETURN: 0.3962


CPU 0 cumulative IPC: 0.327 instructions: 250000001 cycles: 764449039
CPU 0 Branch Prediction Accuracy: 94.58% MPKI: 12.99 Average ROB Occupancy at Mispredict: 48.81
Branch type MPKI
BRANCH_DIRECT_JUMP: 0.1383
BRANCH_INDIRECT: 0
BRANCH_CONDITIONAL: 12.76
BRANCH_DIRECT_CALL: 0.09623
BRANCH_INDIRECT_CALL: 2e-05
BRANCH_RETURN: 6.8e-05

cpu3->cpu3_STLB TOTAL        ACCESS:    1986020 HIT:    1954982 MISS:      31038 MSHR_MERGE:          0
cpu3->cpu3_STLB LOAD         ACCESS:    1986020 HIT:    1954982 MISS:      31038 MSHR_MERGE:          0
cpu3->cpu3_STLB RFO          ACCESS:          0 HIT:          0 MISS:          0 MSHR_MERGE:          0
cpu3->cpu3_STLB PREFETCH     ACCESS:          0 HIT:          0 MISS:          0 MSHR_MERGE:          0
cpu3->cpu3_STLB WRITE        ACCESS:          0 HIT:          0 MISS:          0 MSHR_MERGE:          0
cpu3->cpu3_STLB TRANSLATION  ACCESS:          0 HIT:          0 MISS:          0 MSHR_MERGE:          0
cpu3->cpu3_STLB PREFETCH REQUESTED:          0 ISSUED:          0 USEFUL:          0 USELESS:          0
cpu3->cpu3_STLB AVERAGE MISS LATENCY: 627 cycles
cpu3->cpu3_L2C TOTAL        ACCESS:    8417647 HIT:    6036234 MISS:    2381413 MSHR_MERGE:          0
cpu3->cpu3_L2C LOAD         ACCESS:    6010407 HIT:    4416236 MISS:    1594171 MSHR_MERGE:          0
cpu3->cpu3_L2C RFO          ACCESS:    1057593 HIT:     317492 MISS:     740101 MSHR_MERGE:          0
cpu3->cpu3_L2C PREFETCH     ACCESS:          0 HIT:          0 MISS:          0 MSHR_MERGE:          0
cpu3->cpu3_L2C WRITE        ACCESS:    1302828 HIT:    1301015 MISS:       1813 MSHR_MERGE:          0
cpu3->cpu3_L2C TRANSLATION  ACCESS:      46819 HIT:       1491 MISS:      45328 MSHR_MERGE:          0
[...]
cpu3->cpu3_L1I PREFETCH     ACCESS:          0 HIT:          0 MISS:          0 MSHR_MERGE:          0
cpu3->cpu3_L1I WRITE        ACCESS:          0 HIT:          0 MISS:          0 MSHR_MERGE:          0
cpu3->cpu3_L1I TRANSLATION  ACCESS:          0 HIT:          0 MISS:          0 MSHR_MERGE:          0
cpu3->cpu3_L1I PREFETCH REQUESTED:          0 ISSUED:          0 USEFUL:          0 USELESS:          0
cpu3->cpu3_L1I AVERAGE MISS LATENCY: 9.959 cycles
cpu3->cpu3_L1D TOTAL        ACCESS:  386271700 HIT:  375533405 MISS:   10738295 MSHR_MERGE:    7227897
cpu3->cpu3_L1D LOAD         ACCESS:  245440831 HIT:  240873380 MISS:    4567451 MSHR_MERGE:    2161509
cpu3->cpu3_L1D RFO          ACCESS:          0 HIT:          0 MISS:          0 MSHR_MERGE:          0
cpu3->cpu3_L1D PREFETCH     ACCESS:          0 HIT:          0 MISS:          0 MSHR_MERGE:          0
cpu3->cpu3_L1D WRITE        ACCESS:  140768693 HIT:  134646457 MISS:    6122236 MSHR_MERGE:    5064599
cpu3->cpu3_L1D TRANSLATION  ACCESS:      62176 HIT:      13568 MISS:      48608 MSHR_MERGE:       1789
cpu3->cpu3_L1D PREFETCH REQUESTED:          0 ISSUED:          0 USEFUL:          0 USELESS:          0
cpu3->cpu3_L1D AVERAGE MISS LATENCY: 195.9 cycles
cpu3->cpu3_ITLB TOTAL        ACCESS:  172938322 HIT:  172926680 MISS:      11642 MSHR_MERGE:       7873
cpu3->cpu3_ITLB LOAD         ACCESS:  172938322 HIT:  172926680 MISS:      11642 MSHR_MERGE:       7873
cpu3->cpu3_ITLB RFO          ACCESS:          0 HIT:          0 MISS:          0 MSHR_MERGE:          0
cpu3->cpu3_ITLB PREFETCH     ACCESS:          0 HIT:          0 MISS:          0 MSHR_MERGE:          0
cpu3->cpu3_ITLB WRITE        ACCESS:          0 HIT:          0 MISS:          0 MSHR_MERGE:          0
cpu3->cpu3_ITLB TRANSLATION  ACCESS:          0 HIT:          0 MISS:          0 MSHR_MERGE:          0
cpu3->cpu3_ITLB PREFETCH REQUESTED:          0 ISSUED:          0 USEFUL:          0 USELESS:          0
cpu3->cpu3_ITLB AVERAGE MISS LATENCY: 102.8 cycles
cpu3->cpu3_DTLB TOTAL        ACCESS:  349087139 HIT:  345406396 MISS:    3680743 MSHR_MERGE:    1698492
cpu3->cpu3_DTLB LOAD         ACCESS:  349087139 HIT:  345406396 MISS:    3680743 MSHR_MERGE:    1698492
cpu3->cpu3_DTLB RFO          ACCESS:          0 HIT:          0 MISS:          0 MSHR_MERGE:          0
cpu3->cpu3_DTLB PREFETCH     ACCESS:          0 HIT:          0 MISS:          0 MSHR_MERGE:          0
cpu3->cpu3_DTLB WRITE        ACCESS:          0 HIT:          0 MISS:          0 MSHR_MERGE:          0
cpu3->cpu3_DTLB TRANSLATION  ACCESS:          0 HIT:          0 MISS:          0 MSHR_MERGE:          0
cpu3->cpu3_DTLB PREFETCH REQUESTED:          0 ISSUED:          0 USEFUL:          0 USELESS:          0
cpu3->cpu3_DTLB AVERAGE MISS LATENCY: 14.44 cycles
cpu2->cpu2_STLB TOTAL        ACCESS:   24451655 HIT:   23060722 MISS:    1390933 MSHR_MERGE:          0
cpu2->cpu2_STLB LOAD         ACCESS:   24451655 HIT:   23060722 MISS:    1390933 MSHR_MERGE:          0
cpu2->cpu2_STLB RFO          ACCESS:          0 HIT:          0 MISS:          0 MSHR_MERGE:          0
cpu2->cpu2_STLB PREFETCH     ACCESS:          0 HIT:          0 MISS:          0 MSHR_MERGE:          0
cpu2->cpu2_STLB WRITE        ACCESS:          0 HIT:          0 MISS:          0 MSHR_MERGE:          0
cpu2->cpu2_STLB TRANSLATION  ACCESS:          0 HIT:          0 MISS:          0 MSHR_MERGE:          0
cpu2->cpu2_STLB PREFETCH REQUESTED:          0 ISSUED:          0 USEFUL:          0 USELESS:          0
cpu2->cpu2_STLB AVERAGE MISS LATENCY: 95.46 cycles
cpu2->cpu2_L2C TOTAL        ACCESS:   48964593 HIT:   44761075 MISS:    4203518 MSHR_MERGE:          0
cpu2->cpu2_L2C LOAD         ACCESS:   42694179 HIT:   40196390 MISS:    2497789 MSHR_MERGE:          0
cpu2->cpu2_L2C RFO          ACCESS:    1408087 HIT:     236630 MISS:    1171457 MSHR_MERGE:          0
cpu2->cpu2_L2C PREFETCH     ACCESS:          0 HIT:          0 MISS:          0 MSHR_MERGE:          0
cpu2->cpu2_L2C WRITE        ACCESS:    2163307 HIT:    2163226 MISS:         81 MSHR_MERGE:          0
cpu2->cpu2_L2C TRANSLATION  ACCESS:    2699020 HIT:    2164829 MISS:     534191 MSHR_MERGE:          0
cpu2->cpu2_L2C PREFETCH REQUESTED:          0 ISSUED:          0 USEFUL:          0 USELESS:          0
cpu2->cpu2_L2C AVERAGE MISS LATENCY: 162.2 cycles
cpu2->cpu2_L1I TOTAL        ACCESS:  159700420 HIT:  156580527 MISS:    3119893 MSHR_MERGE:     863707
cpu2->cpu2_L1I LOAD         ACCESS:  159700420 HIT:  156580527 MISS:    3119893 MSHR_MERGE:     863707
cpu2->cpu2_L1I RFO          ACCESS:          0 HIT:          0 MISS:          0 MSHR_MERGE:          0
cpu2->cpu2_L1I PREFETCH     ACCESS:          0 HIT:          0 MISS:          0 MSHR_MERGE:          0
cpu2->cpu2_L1I WRITE        ACCESS:          0 HIT:          0 MISS:          0 MSHR_MERGE:          0
cpu2->cpu2_L1I TRANSLATION  ACCESS:          0 HIT:          0 MISS:          0 MSHR_MERGE:          0
cpu2->cpu2_L1I PREFETCH REQUESTED:          0 ISSUED:          0 USEFUL:          0 USELESS:          0
cpu2->cpu2_L1I AVERAGE MISS LATENCY: 11.48 cycles
cpu2->cpu2_L1D TOTAL        ACCESS:  268648370 HIT:  203412299 MISS:   65236071 MSHR_MERGE:   20690951
cpu2->cpu2_L1D LOAD         ACCESS:  201861383 HIT:  144810966 MISS:   57050417 MSHR_MERGE:   16612409
cpu2->cpu2_L1D RFO          ACCESS:          0 HIT:          0 MISS:          0 MSHR_MERGE:          0
cpu2->cpu2_L1D PREFETCH     ACCESS:          0 HIT:          0 MISS:          0 MSHR_MERGE:          0
cpu2->cpu2_L1D WRITE        ACCESS:   63999921 HIT:   58516762 MISS:    5483159 MSHR_MERGE:    4075067
cpu2->cpu2_L1D TRANSLATION  ACCESS:    2787066 HIT:      84571 MISS:    2702495 MSHR_MERGE:       3475
cpu2->cpu2_L1D PREFETCH REQUESTED:          0 ISSUED:          0 USEFUL:          0 USELESS:          0
cpu2->cpu2_L1D AVERAGE MISS LATENCY: 23.33 cycles
cpu2->cpu2_ITLB TOTAL        ACCESS:  149438257 HIT:  148685388 MISS:     752869 MSHR_MERGE:     414758
cpu2->cpu2_ITLB LOAD         ACCESS:  149438257 HIT:  148685388 MISS:     752869 MSHR_MERGE:     414758
cpu2->cpu2_ITLB RFO          ACCESS:          0 HIT:          0 MISS:          0 MSHR_MERGE:          0
cpu2->cpu2_ITLB PREFETCH     ACCESS:          0 HIT:          0 MISS:          0 MSHR_MERGE:          0
cpu2->cpu2_ITLB WRITE        ACCESS:          0 HIT:          0 MISS:          0 MSHR_MERGE:          0
cpu2->cpu2_ITLB TRANSLATION  ACCESS:          0 HIT:          0 MISS:          0 MSHR_MERGE:          0
cpu2->cpu2_ITLB PREFETCH REQUESTED:          0 ISSUED:          0 USEFUL:          0 USELESS:          0
cpu2->cpu2_ITLB AVERAGE MISS LATENCY: 12.78 cycles
cpu2->cpu2_DTLB TOTAL        ACCESS:  239178663 HIT:  205017765 MISS:   34160898 MSHR_MERGE:   10047355
cpu2->cpu2_DTLB LOAD         ACCESS:  239178663 HIT:  205017765 MISS:   34160898 MSHR_MERGE:   10047355
cpu2->cpu2_DTLB RFO          ACCESS:          0 HIT:          0 MISS:          0 MSHR_MERGE:          0
cpu2->cpu2_DTLB PREFETCH     ACCESS:          0 HIT:          0 MISS:          0 MSHR_MERGE:          0
cpu2->cpu2_DTLB WRITE        ACCESS:          0 HIT:          0 MISS:          0 MSHR_MERGE:          0
cpu2->cpu2_DTLB TRANSLATION  ACCESS:          0 HIT:          0 MISS:          0 MSHR_MERGE:          0
cpu2->cpu2_DTLB PREFETCH REQUESTED:          0 ISSUED:          0 USEFUL:          0 USELESS:          0
cpu2->cpu2_DTLB AVERAGE MISS LATENCY: 10.21 cycles
cpu1->cpu1_STLB TOTAL        ACCESS:    5156432 HIT:    4086129 MISS:    1070303 MSHR_MERGE:          0
cpu1->cpu1_STLB LOAD         ACCESS:    5156432 HIT:    4086129 MISS:    1070303 MSHR_MERGE:          0
cpu1->cpu1_STLB RFO          ACCESS:          0 HIT:          0 MISS:          0 MSHR_MERGE:          0
cpu1->cpu1_STLB PREFETCH     ACCESS:          0 HIT:          0 MISS:          0 MSHR_MERGE:          0
cpu1->cpu1_STLB WRITE        ACCESS:          0 HIT:          0 MISS:          0 MSHR_MERGE:          0
cpu1->cpu1_STLB TRANSLATION  ACCESS:          0 HIT:          0 MISS:          0 MSHR_MERGE:          0
cpu1->cpu1_STLB PREFETCH REQUESTED:          0 ISSUED:          0 USEFUL:          0 USELESS:          0
cpu1->cpu1_STLB AVERAGE MISS LATENCY: 418.9 cycles
cpu1->cpu1_L2C TOTAL        ACCESS:    9676016 HIT:    4495332 MISS:    5180684 MSHR_MERGE:          0
cpu1->cpu1_L2C LOAD         ACCESS:    4311768 HIT:    1403782 MISS:    2907986 MSHR_MERGE:          0
cpu1->cpu1_L2C RFO          ACCESS:     647209 HIT:     180712 MISS:     466497 MSHR_MERGE:          0
cpu1->cpu1_L2C PREFETCH     ACCESS:          0 HIT:          0 MISS:          0 MSHR_MERGE:          0
cpu1->cpu1_L2C WRITE        ACCESS:    2375374 HIT:    2371328 MISS:       4046 MSHR_MERGE:          0
cpu1->cpu1_L2C TRANSLATION  ACCESS:    2341665 HIT:     539510 MISS:    1802155 MSHR_MERGE:          0
cpu1->cpu1_L2C PREFETCH REQUESTED:          0 ISSUED:          0 USEFUL:          0 USELESS:          0
cpu1->cpu1_L2C AVERAGE MISS LATENCY: 224.4 cycles
cpu1->cpu1_L1I TOTAL        ACCESS:   34637266 HIT:   34508899 MISS:     128367 MSHR_MERGE:      31889
cpu1->cpu1_L1I LOAD         ACCESS:   34637266 HIT:   34508899 MISS:     128367 MSHR_MERGE:      31889
cpu1->cpu1_L1I RFO          ACCESS:          0 HIT:          0 MISS:          0 MSHR_MERGE:          0
cpu1->cpu1_L1I PREFETCH     ACCESS:          0 HIT:          0 MISS:          0 MSHR_MERGE:          0
cpu1->cpu1_L1I WRITE        ACCESS:          0 HIT:          0 MISS:          0 MSHR_MERGE:          0
cpu1->cpu1_L1I TRANSLATION  ACCESS:          0 HIT:          0 MISS:          0 MSHR_MERGE:          0
cpu1->cpu1_L1I PREFETCH REQUESTED:          0 ISSUED:          0 USEFUL:          0 USELESS:          0
cpu1->cpu1_L1I AVERAGE MISS LATENCY: 45.82 cycles
cpu1->cpu1_L1D TOTAL        ACCESS:  100539291 HIT:   90861985 MISS:    9677306 MSHR_MERGE:    2473128
cpu1->cpu1_L1D LOAD         ACCESS:   52423124 HIT:   46960809 MISS:    5462315 MSHR_MERGE:    1247015
cpu1->cpu1_L1D RFO          ACCESS:          0 HIT:          0 MISS:          0 MSHR_MERGE:          0
cpu1->cpu1_L1D PREFETCH     ACCESS:          0 HIT:          0 MISS:          0 MSHR_MERGE:          0
cpu1->cpu1_L1D WRITE        ACCESS:   45567379 HIT:   43701190 MISS:    1866189 MSHR_MERGE:    1218976
cpu1->cpu1_L1D TRANSLATION  ACCESS:    2548788 HIT:     199986 MISS:    2348802 MSHR_MERGE:       7137
cpu1->cpu1_L1D PREFETCH REQUESTED:          0 ISSUED:          0 USEFUL:          0 USELESS:          0
cpu1->cpu1_L1D AVERAGE MISS LATENCY: 169.5 cycles
cpu1->cpu1_ITLB TOTAL        ACCESS:   30583051 HIT:   29824661 MISS:     758390 MSHR_MERGE:     363825
cpu1->cpu1_ITLB LOAD         ACCESS:   30583051 HIT:   29824661 MISS:     758390 MSHR_MERGE:     363825
cpu1->cpu1_ITLB RFO          ACCESS:          0 HIT:          0 MISS:          0 MSHR_MERGE:          0
cpu1->cpu1_ITLB PREFETCH     ACCESS:          0 HIT:          0 MISS:          0 MSHR_MERGE:          0
cpu1->cpu1_ITLB WRITE        ACCESS:          0 HIT:          0 MISS:          0 MSHR_MERGE:          0
cpu1->cpu1_ITLB TRANSLATION  ACCESS:          0 HIT:          0 MISS:          0 MSHR_MERGE:          0
cpu1->cpu1_ITLB PREFETCH REQUESTED:          0 ISSUED:          0 USEFUL:          0 USELESS:          0
cpu1->cpu1_ITLB AVERAGE MISS LATENCY: 10.87 cycles
cpu1->cpu1_DTLB TOTAL        ACCESS:   92578155 HIT:   86994091 MISS:    5584064 MSHR_MERGE:     822197
cpu1->cpu1_DTLB LOAD         ACCESS:   92578155 HIT:   86994091 MISS:    5584064 MSHR_MERGE:     822197
cpu1->cpu1_DTLB RFO          ACCESS:          0 HIT:          0 MISS:          0 MSHR_MERGE:          0
cpu1->cpu1_DTLB PREFETCH     ACCESS:          0 HIT:          0 MISS:          0 MSHR_MERGE:          0
cpu1->cpu1_DTLB WRITE        ACCESS:          0 HIT:          0 MISS:          0 MSHR_MERGE:          0
cpu1->cpu1_DTLB TRANSLATION  ACCESS:          0 HIT:          0 MISS:          0 MSHR_MERGE:          0
cpu1->cpu1_DTLB PREFETCH REQUESTED:          0 ISSUED:          0 USEFUL:          0 USELESS:          0
cpu1->cpu1_DTLB AVERAGE MISS LATENCY: 98.9 cycles
cpu0->cpu0_STLB TOTAL        ACCESS:     253488 HIT:     169947 MISS:      83541 MSHR_MERGE:          0
cpu0->cpu0_STLB LOAD         ACCESS:     253488 HIT:     169947 MISS:      83541 MSHR_MERGE:          0
cpu0->cpu0_STLB RFO          ACCESS:          0 HIT:          0 MISS:          0 MSHR_MERGE:          0
cpu0->cpu0_STLB PREFETCH     ACCESS:          0 HIT:          0 MISS:          0 MSHR_MERGE:          0
cpu0->cpu0_STLB WRITE        ACCESS:          0 HIT:          0 MISS:          0 MSHR_MERGE:          0
cpu0->cpu0_STLB TRANSLATION  ACCESS:          0 HIT:          0 MISS:          0 MSHR_MERGE:          0
cpu0->cpu0_STLB PREFETCH REQUESTED:          0 ISSUED:          0 USEFUL:          0 USELESS:          0
cpu0->cpu0_STLB AVERAGE MISS LATENCY: 414.6 cycles
cpu0->cpu0_L2C TOTAL        ACCESS:    5902595 HIT:    2818573 MISS:    3084022 MSHR_MERGE:          0
cpu0->cpu0_L2C LOAD         ACCESS:    5698677 HIT:    2740608 MISS:    2958069 MSHR_MERGE:          0
cpu0->cpu0_L2C RFO          ACCESS:       5919 HIT:       1226 MISS:       4693 MSHR_MERGE:          0
cpu0->cpu0_L2C PREFETCH     ACCESS:          0 HIT:          0 MISS:          0 MSHR_MERGE:          0
cpu0->cpu0_L2C WRITE        ACCESS:      70623 HIT:      70541 MISS:         82 MSHR_MERGE:          0
cpu0->cpu0_L2C TRANSLATION  ACCESS:     127376 HIT:       6198 MISS:     121178 MSHR_MERGE:          0
cpu0->cpu0_L2C PREFETCH REQUESTED:          0 ISSUED:          0 USEFUL:          0 USELESS:          0
cpu0->cpu0_L2C AVERAGE MISS LATENCY: 252.2 cycles
cpu0->cpu0_L1I TOTAL        ACCESS:    1245767 HIT:    1245713 MISS:         54 MSHR_MERGE:          8
cpu0->cpu0_L1I LOAD         ACCESS:    1245767 HIT:    1245713 MISS:         54 MSHR_MERGE:          8
cpu0->cpu0_L1I RFO          ACCESS:          0 HIT:          0 MISS:          0 MSHR_MERGE:          0
cpu0->cpu0_L1I PREFETCH     ACCESS:          0 HIT:          0 MISS:          0 MSHR_MERGE:          0
cpu0->cpu0_L1I WRITE        ACCESS:          0 HIT:          0 MISS:          0 MSHR_MERGE:          0
cpu0->cpu0_L1I TRANSLATION  ACCESS:          0 HIT:          0 MISS:          0 MSHR_MERGE:          0
cpu0->cpu0_L1I PREFETCH REQUESTED:          0 ISSUED:          0 USEFUL:          0 USELESS:          0
cpu0->cpu0_L1I AVERAGE MISS LATENCY: 236.4 cycles
cpu0->cpu0_L1D TOTAL        ACCESS:  100812899 HIT:   87194542 MISS:   13618357 MSHR_MERGE:    7786428
cpu0->cpu0_L1D LOAD         ACCESS:   67915824 HIT:   54456207 MISS:   13459617 MSHR_MERGE:    7760986
cpu0->cpu0_L1D RFO          ACCESS:          0 HIT:          0 MISS:          0 MSHR_MERGE:          0
cpu0->cpu0_L1D PREFETCH     ACCESS:          0 HIT:          0 MISS:          0 MSHR_MERGE:          0
cpu0->cpu0_L1D WRITE        ACCESS:   32723672 HIT:   32692439 MISS:      31233 MSHR_MERGE:      25311
cpu0->cpu0_L1D TRANSLATION  ACCESS:     173403 HIT:      45896 MISS:     127507 MSHR_MERGE:        131
cpu0->cpu0_L1D PREFETCH REQUESTED:          0 ISSUED:          0 USEFUL:          0 USELESS:          0
cpu0->cpu0_L1D AVERAGE MISS LATENCY: 142.1 cycles
cpu0->cpu0_ITLB TOTAL        ACCESS:    1155431 HIT:    1155423 MISS:          8 MSHR_MERGE:          3
cpu0->cpu0_ITLB LOAD         ACCESS:    1155431 HIT:    1155423 MISS:          8 MSHR_MERGE:          3
cpu0->cpu0_ITLB RFO          ACCESS:          0 HIT:          0 MISS:          0 MSHR_MERGE:          0
cpu0->cpu0_ITLB PREFETCH     ACCESS:          0 HIT:          0 MISS:          0 MSHR_MERGE:          0
cpu0->cpu0_ITLB WRITE        ACCESS:          0 HIT:          0 MISS:          0 MSHR_MERGE:          0
cpu0->cpu0_ITLB TRANSLATION  ACCESS:          0 HIT:          0 MISS:          0 MSHR_MERGE:          0
cpu0->cpu0_ITLB PREFETCH REQUESTED:          0 ISSUED:          0 USEFUL:          0 USELESS:          0
cpu0->cpu0_ITLB AVERAGE MISS LATENCY: 1003 cycles
cpu0->cpu0_DTLB TOTAL        ACCESS:  100005343 HIT:   99520096 MISS:     485247 MSHR_MERGE:     231764
cpu0->cpu0_DTLB LOAD         ACCESS:  100005343 HIT:   99520096 MISS:     485247 MSHR_MERGE:     231764
cpu0->cpu0_DTLB RFO          ACCESS:          0 HIT:          0 MISS:          0 MSHR_MERGE:          0
cpu0->cpu0_DTLB PREFETCH     ACCESS:          0 HIT:          0 MISS:          0 MSHR_MERGE:          0
cpu0->cpu0_DTLB WRITE        ACCESS:          0 HIT:          0 MISS:          0 MSHR_MERGE:          0
cpu0->cpu0_DTLB TRANSLATION  ACCESS:          0 HIT:          0 MISS:          0 MSHR_MERGE:          0
cpu0->cpu0_DTLB PREFETCH REQUESTED:          0 ISSUED:          0 USEFUL:          0 USELESS:          0
cpu0->cpu0_DTLB AVERAGE MISS LATENCY: 142 cycles
cpu0->LLC TOTAL        ACCESS:    3122440 HIT:      17185 MISS:    3105255 MSHR_MERGE:          0
cpu0->LLC LOAD         ACCESS:    2958069 HIT:       2890 MISS:    2955179 MSHR_MERGE:          0
cpu0->LLC RFO          ACCESS:       4693 HIT:         19 MISS:       4674 MSHR_MERGE:          0
cpu0->LLC PREFETCH     ACCESS:          0 HIT:          0 MISS:          0 MSHR_MERGE:          0
cpu0->LLC WRITE        ACCESS:      38500 HIT:      14010 MISS:      24490 MSHR_MERGE:          0
cpu0->LLC TRANSLATION  ACCESS:     121178 HIT:        266 MISS:     120912 MSHR_MERGE:          0
cpu0->LLC PREFETCH REQUESTED:          0 ISSUED:          0 USEFUL:          0 USELESS:          0
cpu0->LLC AVERAGE MISS LATENCY: 987.2 cycles
cpu1->LLC TOTAL        ACCESS:    6860692 HIT:    1939441 MISS:    4921251 MSHR_MERGE:          0
cpu1->LLC LOAD         ACCESS:    2907986 HIT:     338773 MISS:    2569213 MSHR_MERGE:          0
cpu1->LLC RFO          ACCESS:     466497 HIT:      99327 MISS:     367170 MSHR_MERGE:          0
cpu1->LLC PREFETCH     ACCESS:          0 HIT:          0 MISS:          0 MSHR_MERGE:          0
cpu1->LLC WRITE        ACCESS:    1684054 HIT:    1320387 MISS:     363667 MSHR_MERGE:          0
cpu1->LLC TRANSLATION  ACCESS:    1802155 HIT:     180954 MISS:    1621201 MSHR_MERGE:          0
cpu1->LLC PREFETCH REQUESTED:          0 ISSUED:          0 USEFUL:          0 USELESS:          0
cpu1->LLC AVERAGE MISS LATENCY: 622.9 cycles
cpu2->LLC TOTAL        ACCESS:    5626347 HIT:    3058252 MISS:    2568095 MSHR_MERGE:          0
cpu2->LLC LOAD         ACCESS:    2497789 HIT:    1920517 MISS:     577272 MSHR_MERGE:          0
cpu2->LLC RFO          ACCESS:    1171457 HIT:      16877 MISS:    1154580 MSHR_MERGE:          0
cpu2->LLC PREFETCH     ACCESS:          0 HIT:          0 MISS:          0 MSHR_MERGE:          0
cpu2->LLC WRITE        ACCESS:    1422910 HIT:     938263 MISS:     484647 MSHR_MERGE:          0
cpu2->LLC TRANSLATION  ACCESS:     534191 HIT:     182595 MISS:     351596 MSHR_MERGE:          0
cpu2->LLC PREFETCH REQUESTED:          0 ISSUED:          0 USEFUL:          0 USELESS:          0
cpu2->LLC AVERAGE MISS LATENCY: 1194 cycles
cpu3->LLC TOTAL        ACCESS:    3268185 HIT:     520431 MISS:    2747754 MSHR_MERGE:          0
cpu3->LLC LOAD         ACCESS:    1594170 HIT:      24320 MISS:    1569850 MSHR_MERGE:          0
cpu3->LLC RFO          ACCESS:     740100 HIT:       3712 MISS:     736388 MSHR_MERGE:          0
cpu3->LLC PREFETCH     ACCESS:          0 HIT:          0 MISS:          0 MSHR_MERGE:          0
cpu3->LLC WRITE        ACCESS:     888587 HIT:     492348 MISS:     396239 MSHR_MERGE:          0
cpu3->LLC TRANSLATION  ACCESS:      45328 HIT:         51 MISS:      45277 MSHR_MERGE:          0
cpu3->LLC PREFETCH REQUESTED:          0 ISSUED:          0 USEFUL:          0 USELESS:          0
cpu3->LLC AVERAGE MISS LATENCY: 1116 cycles

DRAM Statistics

Channel 0 RQ ROW_BUFFER_HIT:     133218
  ROW_BUFFER_MISS:   11936542
  AVG DBUS CONGESTED CYCLE: 6.343
Channel 0 WQ ROW_BUFFER_HIT:     875517
  ROW_BUFFER_MISS:    2902890
  FULL:          0
Channel 0 REFRESHES ISSUED:      82762
