[VMEM] WARNING: physical memory size is smaller than virtual memory size.

*** ChampSim Multicore Out-of-Order Simulator ***
Warmup Instructions: 50000000
Simulation Instructions: 250000000
Number of CPUs: 4
Page size: 4096

Off-chip DRAM Size: 16 GiB Channels: 1 Width: 64-bit Data Rate: 3205 MT/s
Heartbeat CPU 1 instructions: 10000000 cycles: 2508118 heartbeat IPC: 3.987 cumulative IPC: 3.987 (Simulation time: 00 hr 02 min 11 sec)
Heartbeat CPU 3 instructions: 10000002 cycles: 2725303 heartbeat IPC: 3.669 cumulative IPC: 3.669 (Simulation time: 00 hr 02 min 22 sec)
Heartbeat CPU 0 instructions: 10000000 cycles: 3067009 heartbeat IPC: 3.261 cumulative IPC: 3.261 (Simulation time: 00 hr 02 min 39 sec)
Heartbeat CPU 2 instructions: 10000001 cycles: 3191697 heartbeat IPC: 3.133 cumulative IPC: 3.133 (Simulation time: 00 hr 02 min 46 sec)
Heartbeat CPU 1 instructions: 20000003 cycles: 5086587 heartbeat IPC: 3.878 cumulative IPC: 3.932 (Simulation time: 00 hr 04 min 25 sec)
Heartbeat CPU 3 instructions: 20000002 cycles: 5314076 heartbeat IPC: 3.863 cumulative IPC: 3.764 (Simulation time: 00 hr 04 min 38 sec)
Heartbeat CPU 0 instructions: 20000004 cycles: 6148347 heartbeat IPC: 3.245 cumulative IPC: 3.253 (Simulation time: 00 hr 05 min 22 sec)
Heartbeat CPU 2 instructions: 20000003 cycles: 6298789 heartbeat IPC: 3.218 cumulative IPC: 3.175 (Simulation time: 00 hr 05 min 30 sec)
Heartbeat CPU 1 instructions: 30000005 cycles: 7680443 heartbeat IPC: 3.855 cumulative IPC: 3.906 (Simulation time: 00 hr 06 min 45 sec)
Heartbeat CPU 3 instructions: 30000006 cycles: 7975294 heartbeat IPC: 3.758 cumulative IPC: 3.762 (Simulation time: 00 hr 07 min 01 sec)
Heartbeat CPU 0 instructions: 30000005 cycles: 9111086 heartbeat IPC: 3.375 cumulative IPC: 3.293 (Simulation time: 00 hr 08 min 02 sec)
Heartbeat CPU 2 instructions: 30000006 cycles: 9386877 heartbeat IPC: 3.238 cumulative IPC: 3.196 (Simulation time: 00 hr 08 min 17 sec)
Heartbeat CPU 1 instructions: 40000009 cycles: 10184077 heartbeat IPC: 3.994 cumulative IPC: 3.928 (Simulation time: 00 hr 09 min 01 sec)
Heartbeat CPU 3 instructions: 40000009 cycles: 10506838 heartbeat IPC: 3.95 cumulative IPC: 3.807 (Simulation time: 00 hr 09 min 18 sec)
Heartbeat CPU 0 instructions: 40000005 cycles: 11614903 heartbeat IPC: 3.994 cumulative IPC: 3.444 (Simulation time: 00 hr 10 min 18 sec)
Heartbeat CPU 2 instructions: 40000008 cycles: 12487400 heartbeat IPC: 3.225 cumulative IPC: 3.203 (Simulation time: 00 hr 11 min 04 sec)
Warmup finished CPU 1 instructions: 50000001 cycles: 12688265 cumulative IPC: 3.941 (Simulation time: 00 hr 11 min 15 sec)
Heartbeat CPU 1 instructions: 50000009 cycles: 12688267 heartbeat IPC: 3.993 cumulative IPC: 3.941 (Simulation time: 00 hr 11 min 15 sec)
Warmup finished CPU 3 instructions: 50000000 cycles: 13086624 cumulative IPC: 3.821 (Simulation time: 00 hr 11 min 36 sec)
Heartbeat CPU 3 instructions: 50000010 cycles: 13086626 heartbeat IPC: 3.876 cumulative IPC: 3.821 (Simulation time: 00 hr 11 min 36 sec)
Warmup finished CPU 0 instructions: 50000002 cycles: 14114905 cumulative IPC: 3.542 (Simulation time: 00 hr 12 min 31 sec)
Heartbeat CPU 0 instructions: 50000007 cycles: 14114906 heartbeat IPC: 4 cumulative IPC: 3.542 (Simulation time: 00 hr 12 min 31 sec)
Heartbeat CPU 1 instructions: 60000009 cycles: 15190368 heartbeat IPC: 3.997 cumulative IPC: 3.95 (Simulation time: 00 hr 13 min 27 sec)
Warmup finished CPU 2 instructions: 50000000 cycles: 15562684 cumulative IPC: 3.213 (Simulation time: 00 hr 13 min 46 sec)
Warmup complete CPU 3 instructions: 59829301 cycles: 15562684 cumulative IPC: 3.844 (Simulation time: 00 hr 13 min 46 sec)
Warmup complete CPU 2 instructions: 50000000 cycles: 15562684 cumulative IPC: 3.213 (Simulation time: 00 hr 13 min 46 sec)
Warmup complete CPU 1 instructions: 61480667 cycles: 15562684 cumulative IPC: 3.951 (Simulation time: 00 hr 13 min 46 sec)
Warmup complete CPU 0 instructions: 55791125 cycles: 15562684 cumulative IPC: 3.585 (Simulation time: 00 hr 13 min 46 sec)
Heartbeat CPU 2 instructions: 50000010 cycles: 15562686 heartbeat IPC: 3.252 cumulative IPC: 5 (Simulation time: 00 hr 13 min 46 sec)
Heartbeat CPU 3 instructions: 60000011 cycles: 15712971 heartbeat IPC: 3.808 cumulative IPC: 1.136 (Simulation time: 00 hr 13 min 51 sec)
Heartbeat CPU 1 instructions: 70000012 cycles: 19699052 heartbeat IPC: 2.218 cumulative IPC: 2.06 (Simulation time: 00 hr 15 min 34 sec)
Heartbeat CPU 1 instructions: 80000012 cycles: 24566180 heartbeat IPC: 2.055 cumulative IPC: 2.057 (Simulation time: 00 hr 17 min 40 sec)
Heartbeat CPU 0 instructions: 60000007 cycles: 25975373 heartbeat IPC: 0.8431 cumulative IPC: 0.4042 (Simulation time: 00 hr 18 min 15 sec)
Heartbeat CPU 3 instructions: 70000012 cycles: 26735430 heartbeat IPC: 0.9072 cumulative IPC: 0.9103 (Simulation time: 00 hr 18 min 35 sec)
Heartbeat CPU 1 instructions: 90000016 cycles: 29452662 heartbeat IPC: 2.046 cumulative IPC: 2.053 (Simulation time: 00 hr 19 min 42 sec)
Heartbeat CPU 1 instructions: 100000017 cycles: 34400909 heartbeat IPC: 2.021 cumulative IPC: 2.045 (Simulation time: 00 hr 21 min 46 sec)
Heartbeat CPU 1 instructions: 110000021 cycles: 39374512 heartbeat IPC: 2.011 cumulative IPC: 2.038 (Simulation time: 00 hr 23 min 48 sec)
Heartbeat CPU 3 instructions: 80000014 cycles: 42188844 heartbeat IPC: 0.6471 cumulative IPC: 0.7576 (Simulation time: 00 hr 25 min 00 sec)
Heartbeat CPU 1 instructions: 120000022 cycles: 44337036 heartbeat IPC: 2.015 cumulative IPC: 2.034 (Simulation time: 00 hr 25 min 55 sec)
Heartbeat CPU 1 instructions: 130000023 cycles: 49430628 heartbeat IPC: 1.963 cumulative IPC: 2.023 (Simulation time: 00 hr 28 min 07 sec)
Heartbeat CPU 0 instructions: 70000007 cycles: 52302901 heartbeat IPC: 0.3798 cumulative IPC: 0.3867 (Simulation time: 00 hr 29 min 19 sec)
Heartbeat CPU 3 instructions: 90000015 cycles: 53911539 heartbeat IPC: 0.853 cumulative IPC: 0.7867 (Simulation time: 00 hr 30 min 00 sec)
Heartbeat CPU 1 instructions: 140000026 cycles: 54649561 heartbeat IPC: 1.916 cumulative IPC: 2.009 (Simulation time: 00 hr 30 min 19 sec)
Heartbeat CPU 1 instructions: 150000026 cycles: 59735087 heartbeat IPC: 1.966 cumulative IPC: 2.004 (Simulation time: 00 hr 32 min 23 sec)
Heartbeat CPU 2 instructions: 60000010 cycles: 64313646 heartbeat IPC: 0.2051 cumulative IPC: 0.2051 (Simulation time: 00 hr 34 min 18 sec)
Heartbeat CPU 1 instructions: 160000028 cycles: 64786534 heartbeat IPC: 1.98 cumulative IPC: 2.001 (Simulation time: 00 hr 34 min 30 sec)
Heartbeat CPU 3 instructions: 100000018 cycles: 69048446 heartbeat IPC: 0.6606 cumulative IPC: 0.7511 (Simulation time: 00 hr 36 min 17 sec)
Heartbeat CPU 1 instructions: 170000028 cycles: 69967303 heartbeat IPC: 1.93 cumulative IPC: 1.995 (Simulation time: 00 hr 36 min 41 sec)
Heartbeat CPU 1 instructions: 180000029 cycles: 75194047 heartbeat IPC: 1.913 cumulative IPC: 1.988 (Simulation time: 00 hr 38 min 55 sec)
Heartbeat CPU 0 instructions: 80000008 cycles: 78173908 heartbeat IPC: 0.3865 cumulative IPC: 0.3867 (Simulation time: 00 hr 40 min 12 sec)
Heartbeat CPU 3 instructions: 110000018 cycles: 79238924 heartbeat IPC: 0.9813 cumulative IPC: 0.7879 (Simulation time: 00 hr 40 min 39 sec)
Heartbeat CPU 1 instructions: 190000030 cycles: 80352414 heartbeat IPC: 1.939 cumulative IPC: 1.984 (Simulation time: 00 hr 41 min 07 sec)
Heartbeat CPU 1 instructions: 200000031 cycles: 85317987 heartbeat IPC: 2.014 cumulative IPC: 1.986 (Simulation time: 00 hr 43 min 16 sec)
Heartbeat CPU 3 instructions: 120000020 cycles: 88811686 heartbeat IPC: 1.045 cumulative IPC: 0.8215 (Simulation time: 00 hr 44 min 47 sec)
Heartbeat CPU 1 instructions: 210000033 cycles: 90406025 heartbeat IPC: 1.965 cumulative IPC: 1.984 (Simulation time: 00 hr 45 min 28 sec)
Heartbeat CPU 1 instructions: 220000034 cycles: 95582839 heartbeat IPC: 1.932 cumulative IPC: 1.981 (Simulation time: 00 hr 47 min 43 sec)
Heartbeat CPU 3 instructions: 130000021 cycles: 98119137 heartbeat IPC: 1.074 cumulative IPC: 0.85 (Simulation time: 00 hr 48 min 50 sec)
Heartbeat CPU 1 instructions: 230000034 cycles: 100645862 heartbeat IPC: 1.975 cumulative IPC: 1.981 (Simulation time: 00 hr 49 min 56 sec)
Heartbeat CPU 0 instructions: 90000010 cycles: 104211854 heartbeat IPC: 0.3841 cumulative IPC: 0.3859 (Simulation time: 00 hr 51 min 29 sec)
Heartbeat CPU 1 instructions: 240000036 cycles: 105733204 heartbeat IPC: 1.966 cumulative IPC: 1.98 (Simulation time: 00 hr 52 min 07 sec)
Heartbeat CPU 3 instructions: 140000024 cycles: 109258238 heartbeat IPC: 0.8977 cumulative IPC: 0.8557 (Simulation time: 00 hr 53 min 38 sec)
Heartbeat CPU 1 instructions: 250000037 cycles: 110743052 heartbeat IPC: 1.996 cumulative IPC: 1.981 (Simulation time: 00 hr 54 min 14 sec)
Heartbeat CPU 2 instructions: 70000010 cycles: 114632886 heartbeat IPC: 0.1987 cumulative IPC: 0.2019 (Simulation time: 00 hr 55 min 54 sec)
Heartbeat CPU 1 instructions: 260000039 cycles: 115783692 heartbeat IPC: 1.984 cumulative IPC: 1.981 (Simulation time: 00 hr 56 min 24 sec)
Heartbeat CPU 1 instructions: 270000043 cycles: 120876240 heartbeat IPC: 1.964 cumulative IPC: 1.98 (Simulation time: 00 hr 58 min 41 sec)
Heartbeat CPU 3 instructions: 150000025 cycles: 122256674 heartbeat IPC: 0.7693 cumulative IPC: 0.8451 (Simulation time: 00 hr 59 min 19 sec)
Heartbeat CPU 1 instructions: 280000045 cycles: 125844438 heartbeat IPC: 2.013 cumulative IPC: 1.981 (Simulation time: 01 hr 00 min 55 sec)
Heartbeat CPU 1 instructions: 290000045 cycles: 130895374 heartbeat IPC: 1.98 cumulative IPC: 1.981 (Simulation time: 01 hr 03 min 09 sec)
Heartbeat CPU 1 instructions: 300000049 cycles: 135979319 heartbeat IPC: 1.967 cumulative IPC: 1.981 (Simulation time: 01 hr 05 min 20 sec)
Heartbeat CPU 3 instructions: 160000025 cycles: 136132062 heartbeat IPC: 0.7207 cumulative IPC: 0.8308 (Simulation time: 01 hr 05 min 24 sec)
Heartbeat CPU 1 instructions: 310000052 cycles: 140951122 heartbeat IPC: 2.011 cumulative IPC: 1.982 (Simulation time: 01 hr 07 min 33 sec)
Simulation finished CPU 1 instructions: 250000003 cycles: 126215723 cumulative IPC: 1.981 (Simulation time: 01 hr 07 min 54 sec)
Heartbeat CPU 1 instructions: 320000052 cycles: 146030285 heartbeat IPC: 1.969 cumulative IPC: 1.981 (Simulation time: 01 hr 09 min 47 sec)
Heartbeat CPU 3 instructions: 170000025 cycles: 149889664 heartbeat IPC: 0.7269 cumulative IPC: 0.8202 (Simulation time: 01 hr 11 min 24 sec)
Heartbeat CPU 1 instructions: 330000054 cycles: 151150512 heartbeat IPC: 1.953 cumulative IPC: 1.98 (Simulation time: 01 hr 11 min 56 sec)
Heartbeat CPU 1 instructions: 340000054 cycles: 156280246 heartbeat IPC: 1.949 cumulative IPC: 1.979 (Simulation time: 01 hr 14 min 04 sec)
Heartbeat CPU 3 instructions: 180000029 cycles: 160352598 heartbeat IPC: 0.9558 cumulative IPC: 0.83 (Simulation time: 01 hr 15 min 50 sec)
Heartbeat CPU 1 instructions: 350000057 cycles: 161375352 heartbeat IPC: 1.963 cumulative IPC: 1.979 (Simulation time: 01 hr 16 min 16 sec)
Heartbeat CPU 1 instructions: 360000057 cycles: 166587332 heartbeat IPC: 1.919 cumulative IPC: 1.977 (Simulation time: 01 hr 18 min 31 sec)
Heartbeat CPU 0 instructions: 100000013 cycles: 167538285 heartbeat IPC: 0.1579 cumulative IPC: 0.2909 (Simulation time: 01 hr 18 min 56 sec)
Heartbeat CPU 2 instructions: 80000011 cycles: 167844781 heartbeat IPC: 0.1879 cumulative IPC: 0.197 (Simulation time: 01 hr 19 min 04 sec)
Heartbeat CPU 3 instructions: 190000029 cycles: 170019881 heartbeat IPC: 1.034 cumulative IPC: 0.8428 (Simulation time: 01 hr 20 min 00 sec)
Heartbeat CPU 1 instructions: 370000057 cycles: 171587147 heartbeat IPC: 2 cumulative IPC: 1.977 (Simulation time: 01 hr 20 min 41 sec)
Heartbeat CPU 1 instructions: 380000060 cycles: 176760034 heartbeat IPC: 1.933 cumulative IPC: 1.976 (Simulation time: 01 hr 22 min 56 sec)
Heartbeat CPU 3 instructions: 200000031 cycles: 179420301 heartbeat IPC: 1.064 cumulative IPC: 0.8554 (Simulation time: 01 hr 24 min 06 sec)
Heartbeat CPU 1 instructions: 390000064 cycles: 181819913 heartbeat IPC: 1.976 cumulative IPC: 1.976 (Simulation time: 01 hr 25 min 10 sec)
Heartbeat CPU 1 instructions: 400000064 cycles: 187024067 heartbeat IPC: 1.922 cumulative IPC: 1.974 (Simulation time: 01 hr 27 min 25 sec)
Heartbeat CPU 3 instructions: 210000031 cycles: 188688937 heartbeat IPC: 1.079 cumulative IPC: 0.8674 (Simulation time: 01 hr 28 min 09 sec)
Heartbeat CPU 1 instructions: 410000065 cycles: 192147221 heartbeat IPC: 1.952 cumulative IPC: 1.974 (Simulation time: 01 hr 29 min 37 sec)
Heartbeat CPU 0 instructions: 110000015 cycles: 192952315 heartbeat IPC: 0.3935 cumulative IPC: 0.3056 (Simulation time: 01 hr 29 min 58 sec)
Heartbeat CPU 1 instructions: 420000065 cycles: 197226646 heartbeat IPC: 1.969 cumulative IPC: 1.974 (Simulation time: 01 hr 31 min 42 sec)
Heartbeat CPU 1 instructions: 430000067 cycles: 202333334 heartbeat IPC: 1.958 cumulative IPC: 1.973 (Simulation time: 01 hr 33 min 51 sec)
Heartbeat CPU 3 instructions: 220000035 cycles: 202768945 heartbeat IPC: 0.7102 cumulative IPC: 0.8556 (Simulation time: 01 hr 34 min 02 sec)
Heartbeat CPU 1 instructions: 440000068 cycles: 207498664 heartbeat IPC: 1.936 cumulative IPC: 1.972 (Simulation time: 01 hr 36 min 04 sec)
Heartbeat CPU 1 instructions: 450000070 cycles: 212498298 heartbeat IPC: 2 cumulative IPC: 1.973 (Simulation time: 01 hr 38 min 13 sec)
Heartbeat CPU 3 instructions: 230000035 cycles: 213199217 heartbeat IPC: 0.9587 cumulative IPC: 0.861 (Simulation time: 01 hr 38 min 31 sec)
Heartbeat CPU 1 instructions: 460000072 cycles: 217519862 heartbeat IPC: 1.991 cumulative IPC: 1.973 (Simulation time: 01 hr 40 min 24 sec)
Heartbeat CPU 2 instructions: 90000014 cycles: 219207497 heartbeat IPC: 0.1947 cumulative IPC: 0.1964 (Simulation time: 01 hr 41 min 08 sec)
Heartbeat CPU 0 instructions: 120000015 cycles: 219821143 heartbeat IPC: 0.3722 cumulative IPC: 0.3144 (Simulation time: 01 hr 41 min 25 sec)
Heartbeat CPU 1 instructions: 470000072 cycles: 222384474 heartbeat IPC: 2.056 cumulative IPC: 1.975 (Simulation time: 01 hr 42 min 31 sec)
Heartbeat CPU 3 instructions: 240000036 cycles: 222832975 heartbeat IPC: 1.038 cumulative IPC: 0.8693 (Simulation time: 01 hr 42 min 44 sec)
Heartbeat CPU 1 instructions: 480000073 cycles: 227328065 heartbeat IPC: 2.023 cumulative IPC: 1.976 (Simulation time: 01 hr 44 min 41 sec)
Heartbeat CPU 3 instructions: 250000038 cycles: 232101293 heartbeat IPC: 1.079 cumulative IPC: 0.8782 (Simulation time: 01 hr 46 min 47 sec)
Heartbeat CPU 1 instructions: 490000077 cycles: 232197282 heartbeat IPC: 2.054 cumulative IPC: 1.978 (Simulation time: 01 hr 46 min 49 sec)
Heartbeat CPU 1 instructions: 500000080 cycles: 237091998 heartbeat IPC: 2.043 cumulative IPC: 1.98 (Simulation time: 01 hr 49 min 00 sec)
Heartbeat CPU 3 instructions: 260000038 cycles: 240884030 heartbeat IPC: 1.139 cumulative IPC: 0.8884 (Simulation time: 01 hr 50 min 42 sec)
Heartbeat CPU 1 instructions: 510000084 cycles: 241964464 heartbeat IPC: 2.052 cumulative IPC: 1.981 (Simulation time: 01 hr 51 min 08 sec)
Heartbeat CPU 1 instructions: 520000086 cycles: 246870916 heartbeat IPC: 2.038 cumulative IPC: 1.982 (Simulation time: 01 hr 53 min 21 sec)
Heartbeat CPU 0 instructions: 130000017 cycles: 247249006 heartbeat IPC: 0.3646 cumulative IPC: 0.3203 (Simulation time: 01 hr 53 min 31 sec)
Heartbeat CPU 3 instructions: 270000039 cycles: 249058745 heartbeat IPC: 1.223 cumulative IPC: 0.9001 (Simulation time: 01 hr 54 min 20 sec)
Heartbeat CPU 1 instructions: 530000087 cycles: 253186654 heartbeat IPC: 1.583 cumulative IPC: 1.972 (Simulation time: 01 hr 56 min 16 sec)
Heartbeat CPU 3 instructions: 280000039 cycles: 257530647 heartbeat IPC: 1.18 cumulative IPC: 0.9099 (Simulation time: 01 hr 58 min 15 sec)
Heartbeat CPU 1 instructions: 540000088 cycles: 259118792 heartbeat IPC: 1.686 cumulative IPC: 1.965 (Simulation time: 01 hr 58 min 56 sec)
Heartbeat CPU 2 instructions: 100000014 cycles: 261589452 heartbeat IPC: 0.2359 cumulative IPC: 0.2032 (Simulation time: 02 hr 00 min 01 sec)
Heartbeat CPU 1 instructions: 550000090 cycles: 263992554 heartbeat IPC: 2.052 cumulative IPC: 1.966 (Simulation time: 02 hr 01 min 03 sec)
Heartbeat CPU 3 instructions: 290000040 cycles: 267873195 heartbeat IPC: 0.9669 cumulative IPC: 0.9123 (Simulation time: 02 hr 02 min 43 sec)
Heartbeat CPU 1 instructions: 560000093 cycles: 268893508 heartbeat IPC: 2.04 cumulative IPC: 1.968 (Simulation time: 02 hr 03 min 09 sec)
Heartbeat CPU 0 instructions: 140000021 cycles: 273057056 heartbeat IPC: 0.3875 cumulative IPC: 0.327 (Simulation time: 02 hr 04 min 53 sec)
Heartbeat CPU 1 instructions: 570000096 cycles: 273770968 heartbeat IPC: 2.05 cumulative IPC: 1.969 (Simulation time: 02 hr 05 min 11 sec)
Heartbeat CPU 1 instructions: 580000098 cycles: 278649647 heartbeat IPC: 2.05 cumulative IPC: 1.971 (Simulation time: 02 hr 07 min 10 sec)
Heartbeat CPU 3 instructions: 300000043 cycles: 283396170 heartbeat IPC: 0.6442 cumulative IPC: 0.8967 (Simulation time: 02 hr 09 min 11 sec)
Heartbeat CPU 1 instructions: 590000101 cycles: 283512326 heartbeat IPC: 2.056 cumulative IPC: 1.972 (Simulation time: 02 hr 09 min 14 sec)
Heartbeat CPU 1 instructions: 600000101 cycles: 288377714 heartbeat IPC: 2.055 cumulative IPC: 1.974 (Simulation time: 02 hr 11 min 21 sec)
Heartbeat CPU 1 instructions: 610000101 cycles: 293254178 heartbeat IPC: 2.051 cumulative IPC: 1.975 (Simulation time: 02 hr 13 min 26 sec)
Simulation finished CPU 3 instructions: 250000001 cycles: 278605087 cumulative IPC: 0.8973 (Simulation time: 02 hr 13 min 48 sec)
Heartbeat CPU 3 instructions: 310000044 cycles: 294330298 heartbeat IPC: 0.9146 cumulative IPC: 0.8974 (Simulation time: 02 hr 13 min 52 sec)
Heartbeat CPU 1 instructions: 620000101 cycles: 298142685 heartbeat IPC: 2.046 cumulative IPC: 1.977 (Simulation time: 02 hr 15 min 33 sec)
Heartbeat CPU 0 instructions: 150000022 cycles: 298421806 heartbeat IPC: 0.3942 cumulative IPC: 0.3331 (Simulation time: 02 hr 15 min 40 sec)
Heartbeat CPU 2 instructions: 110000014 cycles: 299951063 heartbeat IPC: 0.2607 cumulative IPC: 0.211 (Simulation time: 02 hr 16 min 19 sec)
Heartbeat CPU 1 instructions: 630000101 cycles: 303034933 heartbeat IPC: 2.044 cumulative IPC: 1.978 (Simulation time: 02 hr 17 min 34 sec)
Heartbeat CPU 1 instructions: 640000105 cycles: 307903902 heartbeat IPC: 2.054 cumulative IPC: 1.979 (Simulation time: 02 hr 19 min 37 sec)
Heartbeat CPU 3 instructions: 320000047 cycles: 308104782 heartbeat IPC: 0.726 cumulative IPC: 0.8893 (Simulation time: 02 hr 19 min 42 sec)
Heartbeat CPU 1 instructions: 650000107 cycles: 312798808 heartbeat IPC: 2.043 cumulative IPC: 1.98 (Simulation time: 02 hr 21 min 44 sec)
Heartbeat CPU 1 instructions: 660000107 cycles: 317788837 heartbeat IPC: 2.004 cumulative IPC: 1.98 (Simulation time: 02 hr 23 min 55 sec)
Heartbeat CPU 3 instructions: 330000047 cycles: 318764108 heartbeat IPC: 0.9381 cumulative IPC: 0.8911 (Simulation time: 02 hr 24 min 21 sec)
Heartbeat CPU 1 instructions: 670000111 cycles: 322876688 heartbeat IPC: 1.965 cumulative IPC: 1.98 (Simulation time: 02 hr 26 min 07 sec)
Heartbeat CPU 0 instructions: 160000022 cycles: 325628394 heartbeat IPC: 0.3676 cumulative IPC: 0.3361 (Simulation time: 02 hr 27 min 19 sec)
Heartbeat CPU 1 instructions: 680000112 cycles: 328027799 heartbeat IPC: 1.941 cumulative IPC: 1.979 (Simulation time: 02 hr 28 min 22 sec)
Heartbeat CPU 3 instructions: 340000049 cycles: 328545438 heartbeat IPC: 1.022 cumulative IPC: 0.8952 (Simulation time: 02 hr 28 min 35 sec)
Heartbeat CPU 1 instructions: 690000116 cycles: 333111629 heartbeat IPC: 1.967 cumulative IPC: 1.979 (Simulation time: 02 hr 30 min 36 sec)
Heartbeat CPU 3 instructions: 350000052 cycles: 337827470 heartbeat IPC: 1.077 cumulative IPC: 0.9004 (Simulation time: 02 hr 32 min 39 sec)
Heartbeat CPU 1 instructions: 700000117 cycles: 338159640 heartbeat IPC: 1.981 cumulative IPC: 1.979 (Simulation time: 02 hr 32 min 48 sec)
Heartbeat CPU 1 instructions: 710000118 cycles: 343292411 heartbeat IPC: 1.948 cumulative IPC: 1.979 (Simulation time: 02 hr 35 min 03 sec)
Heartbeat CPU 2 instructions: 120000014 cycles: 344216482 heartbeat IPC: 0.2259 cumulative IPC: 0.213 (Simulation time: 02 hr 35 min 27 sec)
Heartbeat CPU 3 instructions: 360000053 cycles: 346897189 heartbeat IPC: 1.103 cumulative IPC: 0.9059 (Simulation time: 02 hr 36 min 38 sec)
Heartbeat CPU 1 instructions: 720000119 cycles: 348555583 heartbeat IPC: 1.9 cumulative IPC: 1.978 (Simulation time: 02 hr 37 min 22 sec)
Heartbeat CPU 0 instructions: 170000022 cycles: 352669217 heartbeat IPC: 0.3698 cumulative IPC: 0.3388 (Simulation time: 02 hr 39 min 10 sec)
Heartbeat CPU 1 instructions: 730000119 cycles: 353706278 heartbeat IPC: 1.941 cumulative IPC: 1.977 (Simulation time: 02 hr 39 min 38 sec)
Heartbeat CPU 3 instructions: 370000057 cycles: 355812558 heartbeat IPC: 1.122 cumulative IPC: 0.9116 (Simulation time: 02 hr 40 min 32 sec)
Heartbeat CPU 1 instructions: 740000119 cycles: 358789789 heartbeat IPC: 1.967 cumulative IPC: 1.977 (Simulation time: 02 hr 41 min 49 sec)
Heartbeat CPU 3 instructions: 380000058 cycles: 363596310 heartbeat IPC: 1.285 cumulative IPC: 0.9199 (Simulation time: 02 hr 44 min 00 sec)
Heartbeat CPU 1 instructions: 750000120 cycles: 363962992 heartbeat IPC: 1.933 cumulative IPC: 1.976 (Simulation time: 02 hr 44 min 11 sec)
Heartbeat CPU 1 instructions: 760000124 cycles: 369043891 heartbeat IPC: 1.968 cumulative IPC: 1.976 (Simulation time: 02 hr 46 min 30 sec)
Heartbeat CPU 3 instructions: 390000059 cycles: 370718146 heartbeat IPC: 1.404 cumulative IPC: 0.9297 (Simulation time: 02 hr 47 min 14 sec)
Heartbeat CPU 1 instructions: 770000127 cycles: 374044275 heartbeat IPC: 2 cumulative IPC: 1.976 (Simulation time: 02 hr 48 min 44 sec)
Heartbeat CPU 0 instructions: 180000022 cycles: 378454097 heartbeat IPC: 0.3878 cumulative IPC: 0.3423 (Simulation time: 02 hr 50 min 40 sec)
Heartbeat CPU 3 instructions: 400000062 cycles: 378670800 heartbeat IPC: 1.257 cumulative IPC: 0.9368 (Simulation time: 02 hr 50 min 46 sec)
Heartbeat CPU 1 instructions: 780000128 cycles: 379110057 heartbeat IPC: 1.974 cumulative IPC: 1.976 (Simulation time: 02 hr 50 min 58 sec)
Heartbeat CPU 2 instructions: 130000018 cycles: 382752735 heartbeat IPC: 0.2595 cumulative IPC: 0.2179 (Simulation time: 02 hr 52 min 31 sec)
Heartbeat CPU 1 instructions: 790000131 cycles: 384097052 heartbeat IPC: 2.005 cumulative IPC: 1.977 (Simulation time: 02 hr 53 min 06 sec)
Heartbeat CPU 3 instructions: 410000062 cycles: 388070261 heartbeat IPC: 1.064 cumulative IPC: 0.94 (Simulation time: 02 hr 54 min 46 sec)
Heartbeat CPU 1 instructions: 800000132 cycles: 389155471 heartbeat IPC: 1.977 cumulative IPC: 1.977 (Simulation time: 02 hr 55 min 14 sec)
Heartbeat CPU 1 instructions: 810000133 cycles: 394215770 heartbeat IPC: 1.976 cumulative IPC: 1.977 (Simulation time: 02 hr 57 min 20 sec)
Heartbeat CPU 1 instructions: 820000133 cycles: 399249109 heartbeat IPC: 1.987 cumulative IPC: 1.977 (Simulation time: 02 hr 59 min 23 sec)
Heartbeat CPU 3 instructions: 420000064 cycles: 402737882 heartbeat IPC: 0.6818 cumulative IPC: 0.9303 (Simulation time: 03 hr 00 min 44 sec)
Heartbeat CPU 1 instructions: 830000134 cycles: 404236501 heartbeat IPC: 2.005 cumulative IPC: 1.977 (Simulation time: 03 hr 01 min 22 sec)
Heartbeat CPU 1 instructions: 840000134 cycles: 409299037 heartbeat IPC: 1.975 cumulative IPC: 1.977 (Simulation time: 03 hr 03 min 29 sec)
Heartbeat CPU 3 instructions: 430000064 cycles: 413639750 heartbeat IPC: 0.9173 cumulative IPC: 0.9299 (Simulation time: 03 hr 05 min 20 sec)
Heartbeat CPU 1 instructions: 850000135 cycles: 414287446 heartbeat IPC: 2.005 cumulative IPC: 1.978 (Simulation time: 03 hr 05 min 36 sec)
Heartbeat CPU 1 instructions: 860000135 cycles: 419359343 heartbeat IPC: 1.972 cumulative IPC: 1.978 (Simulation time: 03 hr 07 min 45 sec)
Heartbeat CPU 3 instructions: 440000064 cycles: 423385101 heartbeat IPC: 1.026 cumulative IPC: 0.9322 (Simulation time: 03 hr 09 min 26 sec)
Heartbeat CPU 2 instructions: 140000020 cycles: 423410028 heartbeat IPC: 0.246 cumulative IPC: 0.2207 (Simulation time: 03 hr 09 min 27 sec)
Heartbeat CPU 1 instructions: 870000137 cycles: 424351441 heartbeat IPC: 2.003 cumulative IPC: 1.978 (Simulation time: 03 hr 09 min 50 sec)
Heartbeat CPU 1 instructions: 880000138 cycles: 429447207 heartbeat IPC: 1.962 cumulative IPC: 1.978 (Simulation time: 03 hr 12 min 00 sec)
Heartbeat CPU 0 instructions: 190000022 cycles: 429568480 heartbeat IPC: 0.1956 cumulative IPC: 0.3242 (Simulation time: 03 hr 12 min 03 sec)
Heartbeat CPU 3 instructions: 450000066 cycles: 433330101 heartbeat IPC: 1.006 cumulative IPC: 0.9339 (Simulation time: 03 hr 13 min 38 sec)
Heartbeat CPU 1 instructions: 890000138 cycles: 434439752 heartbeat IPC: 2.003 cumulative IPC: 1.978 (Simulation time: 03 hr 14 min 07 sec)
Heartbeat CPU 1 instructions: 900000139 cycles: 439507013 heartbeat IPC: 1.973 cumulative IPC: 1.978 (Simulation time: 03 hr 16 min 18 sec)
Heartbeat CPU 3 instructions: 460000067 cycles: 442064524 heartbeat IPC: 1.145 cumulative IPC: 0.9383 (Simulation time: 03 hr 17 min 24 sec)
Heartbeat CPU 1 instructions: 910000143 cycles: 444630361 heartbeat IPC: 1.952 cumulative IPC: 1.978 (Simulation time: 03 hr 18 min 28 sec)
Heartbeat CPU 1 instructions: 920000143 cycles: 449608461 heartbeat IPC: 2.009 cumulative IPC: 1.978 (Simulation time: 03 hr 20 min 36 sec)
Heartbeat CPU 1 instructions: 930000146 cycles: 454604977 heartbeat IPC: 2.001 cumulative IPC: 1.978 (Simulation time: 03 hr 22 min 38 sec)
Heartbeat CPU 3 instructions: 470000069 cycles: 456498198 heartbeat IPC: 0.6928 cumulative IPC: 0.9302 (Simulation time: 03 hr 23 min 26 sec)
Heartbeat CPU 1 instructions: 940000149 cycles: 459726628 heartbeat IPC: 1.952 cumulative IPC: 1.978 (Simulation time: 03 hr 24 min 51 sec)
Heartbeat CPU 2 instructions: 150000022 cycles: 462178322 heartbeat IPC: 0.2579 cumulative IPC: 0.2239 (Simulation time: 03 hr 25 min 55 sec)
Heartbeat CPU 0 instructions: 200000022 cycles: 463524929 heartbeat IPC: 0.2945 cumulative IPC: 0.3219 (Simulation time: 03 hr 26 min 30 sec)
Heartbeat CPU 1 instructions: 950000150 cycles: 464911898 heartbeat IPC: 1.929 cumulative IPC: 1.977 (Simulation time: 03 hr 27 min 06 sec)
Heartbeat CPU 3 instructions: 480000070 cycles: 466729691 heartbeat IPC: 0.9774 cumulative IPC: 0.9313 (Simulation time: 03 hr 27 min 54 sec)
Heartbeat CPU 1 instructions: 960000154 cycles: 469998996 heartbeat IPC: 1.966 cumulative IPC: 1.977 (Simulation time: 03 hr 29 min 19 sec)
Heartbeat CPU 1 instructions: 970000154 cycles: 475100418 heartbeat IPC: 1.96 cumulative IPC: 1.977 (Simulation time: 03 hr 31 min 31 sec)
Heartbeat CPU 3 instructions: 490000071 cycles: 476903502 heartbeat IPC: 0.9829 cumulative IPC: 0.9324 (Simulation time: 03 hr 32 min 19 sec)
Heartbeat CPU 1 instructions: 980000155 cycles: 480417036 heartbeat IPC: 1.881 cumulative IPC: 1.976 (Simulation time: 03 hr 33 min 50 sec)
Heartbeat CPU 1 instructions: 990000158 cycles: 485477229 heartbeat IPC: 1.976 cumulative IPC: 1.976 (Simulation time: 03 hr 36 min 00 sec)
Heartbeat CPU 0 instructions: 210000026 cycles: 489048736 heartbeat IPC: 0.3918 cumulative IPC: 0.3257 (Simulation time: 03 hr 37 min 27 sec)
Heartbeat CPU 1 instructions: 1000000161 cycles: 490628921 heartbeat IPC: 1.941 cumulative IPC: 1.976 (Simulation time: 03 hr 38 min 07 sec)
Heartbeat CPU 3 instructions: 500000071 cycles: 490788056 heartbeat IPC: 0.7202 cumulative IPC: 0.9262 (Simulation time: 03 hr 38 min 11 sec)
Heartbeat CPU 1 instructions: 1010000161 cycles: 495731734 heartbeat IPC: 1.96 cumulative IPC: 1.975 (Simulation time: 03 hr 40 min 19 sec)
Heartbeat CPU 1 instructions: 1020000162 cycles: 500711643 heartbeat IPC: 2.008 cumulative IPC: 1.976 (Simulation time: 03 hr 42 min 28 sec)
Heartbeat CPU 2 instructions: 160000024 cycles: 501357249 heartbeat IPC: 0.2552 cumulative IPC: 0.2264 (Simulation time: 03 hr 42 min 46 sec)
Heartbeat CPU 3 instructions: 510000071 cycles: 502009874 heartbeat IPC: 0.8911 cumulative IPC: 0.9254 (Simulation time: 03 hr 43 min 03 sec)
Heartbeat CPU 1 instructions: 1030000163 cycles: 505725168 heartbeat IPC: 1.995 cumulative IPC: 1.976 (Simulation time: 03 hr 44 min 40 sec)
Heartbeat CPU 1 instructions: 1040000166 cycles: 510669203 heartbeat IPC: 2.023 cumulative IPC: 1.976 (Simulation time: 03 hr 46 min 48 sec)
Heartbeat CPU 3 instructions: 520000071 cycles: 512130829 heartbeat IPC: 0.988 cumulative IPC: 0.9267 (Simulation time: 03 hr 47 min 27 sec)
Heartbeat CPU 1 instructions: 1050000167 cycles: 515524934 heartbeat IPC: 2.059 cumulative IPC: 1.977 (Simulation time: 03 hr 48 min 56 sec)
Heartbeat CPU 0 instructions: 220000027 cycles: 517250460 heartbeat IPC: 0.3546 cumulative IPC: 0.3273 (Simulation time: 03 hr 49 min 42 sec)
Heartbeat CPU 1 instructions: 1060000168 cycles: 520404039 heartbeat IPC: 2.05 cumulative IPC: 1.978 (Simulation time: 03 hr 51 min 05 sec)
Heartbeat CPU 3 instructions: 530000071 cycles: 521640344 heartbeat IPC: 1.052 cumulative IPC: 0.929 (Simulation time: 03 hr 51 min 37 sec)
Heartbeat CPU 1 instructions: 1070000169 cycles: 525310472 heartbeat IPC: 2.038 cumulative IPC: 1.978 (Simulation time: 03 hr 53 min 14 sec)
Heartbeat CPU 1 instructions: 1080000170 cycles: 530193709 heartbeat IPC: 2.048 cumulative IPC: 1.979 (Simulation time: 03 hr 55 min 24 sec)
Heartbeat CPU 3 instructions: 540000073 cycles: 530787498 heartbeat IPC: 1.093 cumulative IPC: 0.932 (Simulation time: 03 hr 55 min 39 sec)
Heartbeat CPU 1 instructions: 1090000171 cycles: 535058528 heartbeat IPC: 2.056 cumulative IPC: 1.98 (Simulation time: 03 hr 57 min 33 sec)
Heartbeat CPU 3 instructions: 550000073 cycles: 539679317 heartbeat IPC: 1.125 cumulative IPC: 0.9352 (Simulation time: 03 hr 59 min 35 sec)
Heartbeat CPU 1 instructions: 1100000171 cycles: 539932396 heartbeat IPC: 2.052 cumulative IPC: 1.981 (Simulation time: 03 hr 59 min 41 sec)
Heartbeat CPU 0 instructions: 230000028 cycles: 544383391 heartbeat IPC: 0.3686 cumulative IPC: 0.3294 (Simulation time: 04 hr 01 min 40 sec)
Heartbeat CPU 1 instructions: 1110000172 cycles: 544830299 heartbeat IPC: 2.042 cumulative IPC: 1.981 (Simulation time: 04 hr 01 min 52 sec)
Heartbeat CPU 2 instructions: 170000025 cycles: 546694116 heartbeat IPC: 0.2206 cumulative IPC: 0.2259 (Simulation time: 04 hr 02 min 41 sec)
Heartbeat CPU 3 instructions: 560000074 cycles: 548486621 heartbeat IPC: 1.135 cumulative IPC: 0.9385 (Simulation time: 04 hr 03 min 28 sec)
Heartbeat CPU 1 instructions: 1120000173 cycles: 549707346 heartbeat IPC: 2.05 cumulative IPC: 1.982 (Simulation time: 04 hr 04 min 02 sec)
Heartbeat CPU 1 instructions: 1130000175 cycles: 554615105 heartbeat IPC: 2.038 cumulative IPC: 1.982 (Simulation time: 04 hr 06 min 14 sec)
Heartbeat CPU 3 instructions: 570000075 cycles: 555837340 heartbeat IPC: 1.36 cumulative IPC: 0.9443 (Simulation time: 04 hr 06 min 48 sec)
Heartbeat CPU 1 instructions: 1140000176 cycles: 559450492 heartbeat IPC: 2.068 cumulative IPC: 1.983 (Simulation time: 04 hr 08 min 26 sec)
Heartbeat CPU 3 instructions: 580000076 cycles: 562732735 heartbeat IPC: 1.45 cumulative IPC: 0.9507 (Simulation time: 04 hr 09 min 56 sec)
Heartbeat CPU 1 instructions: 1150000177 cycles: 564221238 heartbeat IPC: 2.096 cumulative IPC: 1.984 (Simulation time: 04 hr 10 min 36 sec)
Heartbeat CPU 3 instructions: 590000079 cycles: 570563817 heartbeat IPC: 1.277 cumulative IPC: 0.9553 (Simulation time: 04 hr 13 min 35 sec)
Heartbeat CPU 0 instructions: 240000028 cycles: 570738785 heartbeat IPC: 0.3794 cumulative IPC: 0.3318 (Simulation time: 04 hr 13 min 39 sec)
Heartbeat CPU 1 instructions: 1160000177 cycles: 571503251 heartbeat IPC: 1.373 cumulative IPC: 1.976 (Simulation time: 04 hr 14 min 00 sec)
Heartbeat CPU 1 instructions: 1170000177 cycles: 576402932 heartbeat IPC: 2.041 cumulative IPC: 1.977 (Simulation time: 04 hr 16 min 09 sec)
Heartbeat CPU 3 instructions: 600000083 cycles: 579098470 heartbeat IPC: 1.172 cumulative IPC: 0.9585 (Simulation time: 04 hr 17 min 20 sec)
Heartbeat CPU 1 instructions: 1180000177 cycles: 581280109 heartbeat IPC: 2.05 cumulative IPC: 1.977 (Simulation time: 04 hr 18 min 17 sec)
Heartbeat CPU 2 instructions: 180000026 cycles: 584615579 heartbeat IPC: 0.2637 cumulative IPC: 0.2284 (Simulation time: 04 hr 19 min 44 sec)
Heartbeat CPU 1 instructions: 1190000179 cycles: 586161206 heartbeat IPC: 2.049 cumulative IPC: 1.978 (Simulation time: 04 hr 20 min 24 sec)
Heartbeat CPU 3 instructions: 610000083 cycles: 589621995 heartbeat IPC: 0.9503 cumulative IPC: 0.9584 (Simulation time: 04 hr 21 min 53 sec)
Heartbeat CPU 1 instructions: 1200000180 cycles: 591027588 heartbeat IPC: 2.055 cumulative IPC: 1.978 (Simulation time: 04 hr 22 min 28 sec)
Heartbeat CPU 1 instructions: 1210000182 cycles: 595899051 heartbeat IPC: 2.053 cumulative IPC: 1.979 (Simulation time: 04 hr 24 min 31 sec)
Heartbeat CPU 0 instructions: 250000028 cycles: 596410178 heartbeat IPC: 0.3895 cumulative IPC: 0.3344 (Simulation time: 04 hr 24 min 45 sec)
Heartbeat CPU 1 instructions: 1220000183 cycles: 600788236 heartbeat IPC: 2.045 cumulative IPC: 1.98 (Simulation time: 04 hr 26 min 30 sec)
Heartbeat CPU 3 instructions: 620000083 cycles: 604323460 heartbeat IPC: 0.6802 cumulative IPC: 0.9514 (Simulation time: 04 hr 28 min 03 sec)
Heartbeat CPU 1 instructions: 1230000186 cycles: 605652631 heartbeat IPC: 2.056 cumulative IPC: 1.98 (Simulation time: 04 hr 28 min 37 sec)
Heartbeat CPU 1 instructions: 1240000186 cycles: 610526000 heartbeat IPC: 2.052 cumulative IPC: 1.981 (Simulation time: 04 hr 30 min 42 sec)
Heartbeat CPU 1 instructions: 1250000190 cycles: 615415894 heartbeat IPC: 2.045 cumulative IPC: 1.981 (Simulation time: 04 hr 32 min 45 sec)
Heartbeat CPU 3 instructions: 630000086 cycles: 617985850 heartbeat IPC: 0.7319 cumulative IPC: 0.9465 (Simulation time: 04 hr 33 min 51 sec)
Heartbeat CPU 1 instructions: 1260000194 cycles: 620266907 heartbeat IPC: 2.061 cumulative IPC: 1.982 (Simulation time: 04 hr 34 min 51 sec)
Heartbeat CPU 0 instructions: 260000031 cycles: 621669323 heartbeat IPC: 0.3959 cumulative IPC: 0.3369 (Simulation time: 04 hr 35 min 26 sec)
Heartbeat CPU 2 instructions: 190000026 cycles: 622297231 heartbeat IPC: 0.2654 cumulative IPC: 0.2307 (Simulation time: 04 hr 35 min 43 sec)
Heartbeat CPU 1 instructions: 1270000194 cycles: 625126069 heartbeat IPC: 2.058 cumulative IPC: 1.983 (Simulation time: 04 hr 36 min 53 sec)
Heartbeat CPU 1 instructions: 1280000194 cycles: 629984691 heartbeat IPC: 2.058 cumulative IPC: 1.983 (Simulation time: 04 hr 38 min 58 sec)
Heartbeat CPU 3 instructions: 640000087 cycles: 631246400 heartbeat IPC: 0.7541 cumulative IPC: 0.9423 (Simulation time: 04 hr 39 min 32 sec)
Heartbeat CPU 1 instructions: 1290000196 cycles: 634878136 heartbeat IPC: 2.044 cumulative IPC: 1.984 (Simulation time: 04 hr 41 min 06 sec)
Heartbeat CPU 1 instructions: 1300000196 cycles: 639808508 heartbeat IPC: 2.028 cumulative IPC: 1.984 (Simulation time: 04 hr 43 min 16 sec)
Heartbeat CPU 3 instructions: 650000091 cycles: 641503967 heartbeat IPC: 0.9749 cumulative IPC: 0.9429 (Simulation time: 04 hr 44 min 01 sec)
Heartbeat CPU 1 instructions: 1310000197 cycles: 644837568 heartbeat IPC: 1.988 cumulative IPC: 1.984 (Simulation time: 04 hr 45 min 29 sec)
Heartbeat CPU 0 instructions: 270000031 cycles: 649128871 heartbeat IPC: 0.3642 cumulative IPC: 0.3381 (Simulation time: 04 hr 47 min 23 sec)
Heartbeat CPU 1 instructions: 1320000201 cycles: 649835022 heartbeat IPC: 2.001 cumulative IPC: 1.984 (Simulation time: 04 hr 47 min 41 sec)
Heartbeat CPU 3 instructions: 660000092 cycles: 651044780 heartbeat IPC: 1.048 cumulative IPC: 0.9444 (Simulation time: 04 hr 48 min 12 sec)
Heartbeat CPU 1 instructions: 1330000202 cycles: 654830178 heartbeat IPC: 2.002 cumulative IPC: 1.984 (Simulation time: 04 hr 49 min 53 sec)
Heartbeat CPU 1 instructions: 1340000202 cycles: 659898815 heartbeat IPC: 1.973 cumulative IPC: 1.984 (Simulation time: 04 hr 52 min 06 sec)
Heartbeat CPU 3 instructions: 670000092 cycles: 660169914 heartbeat IPC: 1.096 cumulative IPC: 0.9466 (Simulation time: 04 hr 52 min 13 sec)
Heartbeat CPU 1 instructions: 1350000202 cycles: 664971200 heartbeat IPC: 1.971 cumulative IPC: 1.984 (Simulation time: 04 hr 54 min 20 sec)
Heartbeat CPU 2 instructions: 200000028 cycles: 666436618 heartbeat IPC: 0.2266 cumulative IPC: 0.2305 (Simulation time: 04 hr 54 min 59 sec)
Heartbeat CPU 3 instructions: 680000095 cycles: 669653055 heartbeat IPC: 1.055 cumulative IPC: 0.9481 (Simulation time: 04 hr 56 min 23 sec)
Heartbeat CPU 1 instructions: 1360000202 cycles: 670021397 heartbeat IPC: 1.98 cumulative IPC: 1.984 (Simulation time: 04 hr 56 min 33 sec)
Heartbeat CPU 1 instructions: 1370000206 cycles: 675277266 heartbeat IPC: 1.903 cumulative IPC: 1.983 (Simulation time: 04 hr 58 min 55 sec)
Heartbeat CPU 0 instructions: 280000032 cycles: 675467714 heartbeat IPC: 0.3797 cumulative IPC: 0.3398 (Simulation time: 04 hr 59 min 00 sec)
Heartbeat CPU 3 instructions: 690000098 cycles: 676863417 heartbeat IPC: 1.387 cumulative IPC: 0.9529 (Simulation time: 04 hr 59 min 37 sec)
Heartbeat CPU 1 instructions: 1380000206 cycles: 680357545 heartbeat IPC: 1.968 cumulative IPC: 1.983 (Simulation time: 05 hr 01 min 12 sec)
Heartbeat CPU 3 instructions: 700000102 cycles: 685018004 heartbeat IPC: 1.226 cumulative IPC: 0.9563 (Simulation time: 05 hr 03 min 15 sec)
Heartbeat CPU 1 instructions: 1390000209 cycles: 685683366 heartbeat IPC: 1.878 cumulative IPC: 1.983 (Simulation time: 05 hr 03 min 32 sec)
Heartbeat CPU 1 instructions: 1400000212 cycles: 690791496 heartbeat IPC: 1.958 cumulative IPC: 1.982 (Simulation time: 05 hr 05 min 45 sec)
Heartbeat CPU 3 instructions: 710000103 cycles: 695385220 heartbeat IPC: 0.9646 cumulative IPC: 0.9564 (Simulation time: 05 hr 07 min 44 sec)
Heartbeat CPU 1 instructions: 1410000216 cycles: 695824101 heartbeat IPC: 1.987 cumulative IPC: 1.982 (Simulation time: 05 hr 07 min 55 sec)
Heartbeat CPU 0 instructions: 290000034 cycles: 700379942 heartbeat IPC: 0.4014 cumulative IPC: 0.342 (Simulation time: 05 hr 09 min 50 sec)
Heartbeat CPU 1 instructions: 1420000220 cycles: 700926514 heartbeat IPC: 1.96 cumulative IPC: 1.982 (Simulation time: 05 hr 10 min 04 sec)
Heartbeat CPU 2 instructions: 210000031 cycles: 704620018 heartbeat IPC: 0.2619 cumulative IPC: 0.2322 (Simulation time: 05 hr 11 min 35 sec)
Heartbeat CPU 1 instructions: 1430000220 cycles: 705983842 heartbeat IPC: 1.977 cumulative IPC: 1.982 (Simulation time: 05 hr 12 min 11 sec)
Heartbeat CPU 3 instructions: 720000103 cycles: 709164712 heartbeat IPC: 0.7257 cumulative IPC: 0.9518 (Simulation time: 05 hr 13 min 34 sec)
Heartbeat CPU 1 instructions: 1440000223 cycles: 711185350 heartbeat IPC: 1.923 cumulative IPC: 1.982 (Simulation time: 05 hr 14 min 27 sec)
Heartbeat CPU 1 instructions: 1450000226 cycles: 716263830 heartbeat IPC: 1.969 cumulative IPC: 1.982 (Simulation time: 05 hr 16 min 38 sec)
Heartbeat CPU 1 instructions: 1460000226 cycles: 721335534 heartbeat IPC: 1.972 cumulative IPC: 1.982 (Simulation time: 05 hr 18 min 47 sec)
Heartbeat CPU 3 instructions: 730000103 cycles: 723199702 heartbeat IPC: 0.7125 cumulative IPC: 0.9471 (Simulation time: 05 hr 19 min 32 sec)
Heartbeat CPU 0 instructions: 300000038 cycles: 726306618 heartbeat IPC: 0.3857 cumulative IPC: 0.3436 (Simulation time: 05 hr 20 min 49 sec)
Heartbeat CPU 1 instructions: 1470000226 cycles: 726384479 heartbeat IPC: 1.981 cumulative IPC: 1.982 (Simulation time: 05 hr 20 min 51 sec)
Heartbeat CPU 1 instructions: 1480000230 cycles: 731562866 heartbeat IPC: 1.931 cumulative IPC: 1.981 (Simulation time: 05 hr 23 min 04 sec)
Heartbeat CPU 3 instructions: 740000104 cycles: 736308090 heartbeat IPC: 0.7629 cumulative IPC: 0.9437 (Simulation time: 05 hr 25 min 07 sec)
Heartbeat CPU 1 instructions: 1490000230 cycles: 736585664 heartbeat IPC: 1.991 cumulative IPC: 1.981 (Simulation time: 05 hr 25 min 15 sec)
Simulation finished CPU 0 instructions: 250000003 cycles: 725427445 cumulative IPC: 0.3446 (Simulation time: 05 hr 27 min 04 sec)
Heartbeat CPU 1 instructions: 1500000230 cycles: 741642699 heartbeat IPC: 1.977 cumulative IPC: 1.981 (Simulation time: 05 hr 27 min 20 sec)
Heartbeat CPU 2 instructions: 220000035 cycles: 742267534 heartbeat IPC: 0.2656 cumulative IPC: 0.2339 (Simulation time: 05 hr 27 min 37 sec)
Heartbeat CPU 1 instructions: 1510000233 cycles: 746670250 heartbeat IPC: 1.989 cumulative IPC: 1.981 (Simulation time: 05 hr 29 min 26 sec)
Heartbeat CPU 0 instructions: 310000039 cycles: 751421089 heartbeat IPC: 0.3982 cumulative IPC: 0.3455 (Simulation time: 05 hr 31 min 28 sec)
Heartbeat CPU 3 instructions: 750000106 cycles: 751644014 heartbeat IPC: 0.6521 cumulative IPC: 0.9376 (Simulation time: 05 hr 31 min 34 sec)
Heartbeat CPU 1 instructions: 1520000234 cycles: 751733617 heartbeat IPC: 1.975 cumulative IPC: 1.981 (Simulation time: 05 hr 31 min 36 sec)
Heartbeat CPU 1 instructions: 1530000236 cycles: 756762051 heartbeat IPC: 1.989 cumulative IPC: 1.981 (Simulation time: 05 hr 33 min 42 sec)
Heartbeat CPU 1 instructions: 1540000240 cycles: 761805472 heartbeat IPC: 1.983 cumulative IPC: 1.981 (Simulation time: 05 hr 35 min 52 sec)
Heartbeat CPU 3 instructions: 760000108 cycles: 766938420 heartbeat IPC: 0.6538 cumulative IPC: 0.9319 (Simulation time: 05 hr 38 min 00 sec)
Heartbeat CPU 1 instructions: 1550000240 cycles: 766945219 heartbeat IPC: 1.946 cumulative IPC: 1.981 (Simulation time: 05 hr 38 min 00 sec)
Heartbeat CPU 1 instructions: 1560000243 cycles: 772033790 heartbeat IPC: 1.965 cumulative IPC: 1.981 (Simulation time: 05 hr 40 min 13 sec)
Heartbeat CPU 1 instructions: 1570000247 cycles: 777074809 heartbeat IPC: 1.984 cumulative IPC: 1.981 (Simulation time: 05 hr 42 min 24 sec)
Heartbeat CPU 3 instructions: 770000108 cycles: 777390627 heartbeat IPC: 0.9567 cumulative IPC: 0.9322 (Simulation time: 05 hr 42 min 32 sec)
Heartbeat CPU 0 instructions: 320000041 cycles: 777580768 heartbeat IPC: 0.3823 cumulative IPC: 0.3467 (Simulation time: 05 hr 42 min 37 sec)
Heartbeat CPU 1 instructions: 1580000247 cycles: 782114474 heartbeat IPC: 1.984 cumulative IPC: 1.981 (Simulation time: 05 hr 44 min 37 sec)
Heartbeat CPU 2 instructions: 230000035 cycles: 783989478 heartbeat IPC: 0.2397 cumulative IPC: 0.2342 (Simulation time: 05 hr 45 min 25 sec)
Heartbeat CPU 3 instructions: 780000110 cycles: 787062909 heartbeat IPC: 1.034 cumulative IPC: 0.9335 (Simulation time: 05 hr 46 min 45 sec)
Heartbeat CPU 1 instructions: 1590000249 cycles: 787183762 heartbeat IPC: 1.973 cumulative IPC: 1.981 (Simulation time: 05 hr 46 min 49 sec)
Heartbeat CPU 1 instructions: 1600000250 cycles: 792268860 heartbeat IPC: 1.967 cumulative IPC: 1.981 (Simulation time: 05 hr 49 min 03 sec)
Heartbeat CPU 3 instructions: 790000110 cycles: 796273604 heartbeat IPC: 1.086 cumulative IPC: 0.9353 (Simulation time: 05 hr 50 min 48 sec)
Heartbeat CPU 1 instructions: 1610000251 cycles: 797526233 heartbeat IPC: 1.902 cumulative IPC: 1.98 (Simulation time: 05 hr 51 min 20 sec)
Heartbeat CPU 1 instructions: 1620000253 cycles: 802577817 heartbeat IPC: 1.98 cumulative IPC: 1.98 (Simulation time: 05 hr 53 min 35 sec)
Heartbeat CPU 0 instructions: 330000044 cycles: 804310341 heartbeat IPC: 0.3741 cumulative IPC: 0.3477 (Simulation time: 05 hr 54 min 21 sec)
Heartbeat CPU 3 instructions: 800000110 cycles: 805032364 heartbeat IPC: 1.142 cumulative IPC: 0.9376 (Simulation time: 05 hr 54 min 40 sec)
Heartbeat CPU 1 instructions: 1630000253 cycles: 807640209 heartbeat IPC: 1.975 cumulative IPC: 1.98 (Simulation time: 05 hr 55 min 50 sec)
Heartbeat CPU 1 instructions: 1640000257 cycles: 812708310 heartbeat IPC: 1.973 cumulative IPC: 1.98 (Simulation time: 05 hr 58 min 02 sec)
Heartbeat CPU 3 instructions: 810000114 cycles: 815180289 heartbeat IPC: 0.9854 cumulative IPC: 0.9382 (Simulation time: 05 hr 59 min 05 sec)
Heartbeat CPU 1 instructions: 1650000258 cycles: 817890700 heartbeat IPC: 1.93 cumulative IPC: 1.98 (Simulation time: 06 hr 00 min 15 sec)
Heartbeat CPU 2 instructions: 240000038 cycles: 819814098 heartbeat IPC: 0.2791 cumulative IPC: 0.2362 (Simulation time: 06 hr 01 min 03 sec)
Heartbeat CPU 1 instructions: 1660000262 cycles: 823047633 heartbeat IPC: 1.939 cumulative IPC: 1.98 (Simulation time: 06 hr 02 min 22 sec)
Heartbeat CPU 1 instructions: 1670000265 cycles: 828159086 heartbeat IPC: 1.956 cumulative IPC: 1.979 (Simulation time: 06 hr 04 min 35 sec)
Heartbeat CPU 3 instructions: 820000114 cycles: 828867703 heartbeat IPC: 0.7306 cumulative IPC: 0.9347 (Simulation time: 06 hr 04 min 53 sec)
Heartbeat CPU 0 instructions: 340000045 cycles: 829346068 heartbeat IPC: 0.3994 cumulative IPC: 0.3492 (Simulation time: 06 hr 05 min 05 sec)
Heartbeat CPU 1 instructions: 1680000265 cycles: 833446126 heartbeat IPC: 1.891 cumulative IPC: 1.979 (Simulation time: 06 hr 06 min 53 sec)
Heartbeat CPU 1 instructions: 1690000268 cycles: 838557494 heartbeat IPC: 1.956 cumulative IPC: 1.979 (Simulation time: 06 hr 09 min 04 sec)
Heartbeat CPU 3 instructions: 830000114 cycles: 842367584 heartbeat IPC: 0.7407 cumulative IPC: 0.9315 (Simulation time: 06 hr 10 min 38 sec)
Heartbeat CPU 1 instructions: 1700000272 cycles: 843688522 heartbeat IPC: 1.949 cumulative IPC: 1.979 (Simulation time: 06 hr 11 min 09 sec)
Heartbeat CPU 1 instructions: 1710000273 cycles: 848789779 heartbeat IPC: 1.96 cumulative IPC: 1.978 (Simulation time: 06 hr 13 min 19 sec)
Heartbeat CPU 1 instructions: 1720000273 cycles: 853786726 heartbeat IPC: 2.001 cumulative IPC: 1.979 (Simulation time: 06 hr 15 min 26 sec)
Heartbeat CPU 0 instructions: 350000046 cycles: 855026945 heartbeat IPC: 0.3894 cumulative IPC: 0.3505 (Simulation time: 06 hr 15 min 58 sec)
Heartbeat CPU 3 instructions: 840000117 cycles: 856146564 heartbeat IPC: 0.7257 cumulative IPC: 0.9281 (Simulation time: 06 hr 16 min 27 sec)
Heartbeat CPU 2 instructions: 250000041 cycles: 858033254 heartbeat IPC: 0.2616 cumulative IPC: 0.2374 (Simulation time: 06 hr 17 min 17 sec)
Heartbeat CPU 1 instructions: 1730000274 cycles: 858753789 heartbeat IPC: 2.013 cumulative IPC: 1.979 (Simulation time: 06 hr 17 min 36 sec)
Heartbeat CPU 1 instructions: 1740000274 cycles: 863747482 heartbeat IPC: 2.003 cumulative IPC: 1.979 (Simulation time: 06 hr 19 min 47 sec)
Heartbeat CPU 3 instructions: 850000117 cycles: 866152574 heartbeat IPC: 0.9994 cumulative IPC: 0.929 (Simulation time: 06 hr 20 min 49 sec)
Heartbeat CPU 1 instructions: 1750000274 cycles: 868610386 heartbeat IPC: 2.056 cumulative IPC: 1.979 (Simulation time: 06 hr 21 min 51 sec)
Heartbeat CPU 1 instructions: 1760000275 cycles: 873481724 heartbeat IPC: 2.053 cumulative IPC: 1.98 (Simulation time: 06 hr 24 min 00 sec)
Heartbeat CPU 1 instructions: 1770000277 cycles: 878371070 heartbeat IPC: 2.045 cumulative IPC: 1.98 (Simulation time: 06 hr 26 min 06 sec)
Heartbeat CPU 3 instructions: 860000117 cycles: 879017458 heartbeat IPC: 0.7773 cumulative IPC: 0.9267 (Simulation time: 06 hr 26 min 21 sec)
Heartbeat CPU 0 instructions: 360000047 cycles: 881130973 heartbeat IPC: 0.3831 cumulative IPC: 0.3515 (Simulation time: 06 hr 27 min 14 sec)
Heartbeat CPU 1 instructions: 1780000277 cycles: 883221983 heartbeat IPC: 2.061 cumulative IPC: 1.981 (Simulation time: 06 hr 28 min 09 sec)
Heartbeat CPU 1 instructions: 1790000278 cycles: 888081348 heartbeat IPC: 2.058 cumulative IPC: 1.981 (Simulation time: 06 hr 30 min 16 sec)
Heartbeat CPU 3 instructions: 870000117 cycles: 890333142 heartbeat IPC: 0.8837 cumulative IPC: 0.9262 (Simulation time: 06 hr 31 min 14 sec)
Heartbeat CPU 1 instructions: 1800000278 cycles: 892937769 heartbeat IPC: 2.059 cumulative IPC: 1.982 (Simulation time: 06 hr 32 min 23 sec)
Heartbeat CPU 2 instructions: 260000041 cycles: 896497536 heartbeat IPC: 0.26 cumulative IPC: 0.2384 (Simulation time: 06 hr 33 min 57 sec)
Heartbeat CPU 1 instructions: 1810000278 cycles: 897835469 heartbeat IPC: 2.042 cumulative IPC: 1.982 (Simulation time: 06 hr 34 min 32 sec)
Heartbeat CPU 3 instructions: 880000118 cycles: 900105589 heartbeat IPC: 1.023 cumulative IPC: 0.9272 (Simulation time: 06 hr 35 min 32 sec)
Heartbeat CPU 1 instructions: 1820000278 cycles: 902703014 heartbeat IPC: 2.054 cumulative IPC: 1.982 (Simulation time: 06 hr 36 min 39 sec)
Heartbeat CPU 0 instructions: 370000047 cycles: 906857300 heartbeat IPC: 0.3887 cumulative IPC: 0.3525 (Simulation time: 06 hr 38 min 29 sec)
Heartbeat CPU 1 instructions: 1830000278 cycles: 907592887 heartbeat IPC: 2.045 cumulative IPC: 1.983 (Simulation time: 06 hr 38 min 49 sec)
Heartbeat CPU 3 instructions: 890000119 cycles: 910776707 heartbeat IPC: 0.9371 cumulative IPC: 0.9273 (Simulation time: 06 hr 40 min 12 sec)
Heartbeat CPU 1 instructions: 1840000279 cycles: 912464727 heartbeat IPC: 2.053 cumulative IPC: 1.983 (Simulation time: 06 hr 40 min 55 sec)
Heartbeat CPU 1 instructions: 1850000280 cycles: 917335058 heartbeat IPC: 2.053 cumulative IPC: 1.983 (Simulation time: 06 hr 42 min 55 sec)
Heartbeat CPU 1 instructions: 1860000280 cycles: 922203655 heartbeat IPC: 2.054 cumulative IPC: 1.984 (Simulation time: 06 hr 45 min 01 sec)
Heartbeat CPU 3 instructions: 900000119 cycles: 926806852 heartbeat IPC: 0.6238 cumulative IPC: 0.922 (Simulation time: 06 hr 46 min 56 sec)
Heartbeat CPU 1 instructions: 1870000281 cycles: 927092842 heartbeat IPC: 2.045 cumulative IPC: 1.984 (Simulation time: 06 hr 47 min 04 sec)
Heartbeat CPU 1 instructions: 1880000282 cycles: 931968122 heartbeat IPC: 2.051 cumulative IPC: 1.984 (Simulation time: 06 hr 49 min 11 sec)
Heartbeat CPU 0 instructions: 380000047 cycles: 932313734 heartbeat IPC: 0.3928 cumulative IPC: 0.3536 (Simulation time: 06 hr 49 min 20 sec)
Heartbeat CPU 2 instructions: 270000044 cycles: 934350842 heartbeat IPC: 0.2642 cumulative IPC: 0.2394 (Simulation time: 06 hr 50 min 13 sec)
Heartbeat CPU 1 instructions: 1890000282 cycles: 936829800 heartbeat IPC: 2.057 cumulative IPC: 1.985 (Simulation time: 06 hr 51 min 18 sec)
Heartbeat CPU 3 instructions: 910000123 cycles: 937274169 heartbeat IPC: 0.9554 cumulative IPC: 0.9224 (Simulation time: 06 hr 51 min 30 sec)
Heartbeat CPU 1 instructions: 1900000284 cycles: 941602284 heartbeat IPC: 2.095 cumulative IPC: 1.985 (Simulation time: 06 hr 53 min 24 sec)
Heartbeat CPU 3 instructions: 920000123 cycles: 947263402 heartbeat IPC: 1.001 cumulative IPC: 0.9232 (Simulation time: 06 hr 55 min 59 sec)
Heartbeat CPU 1 instructions: 1910000288 cycles: 949303811 heartbeat IPC: 1.298 cumulative IPC: 1.98 (Simulation time: 06 hr 56 min 55 sec)
Heartbeat CPU 1 instructions: 1920000289 cycles: 954205640 heartbeat IPC: 2.04 cumulative IPC: 1.98 (Simulation time: 06 hr 59 min 05 sec)
Heartbeat CPU 3 instructions: 930000123 cycles: 956856518 heartbeat IPC: 1.042 cumulative IPC: 0.9244 (Simulation time: 07 hr 00 min 15 sec)
Heartbeat CPU 1 instructions: 1930000293 cycles: 959083317 heartbeat IPC: 2.05 cumulative IPC: 1.98 (Simulation time: 07 hr 01 min 14 sec)
Heartbeat CPU 0 instructions: 390000047 cycles: 959900462 heartbeat IPC: 0.3625 cumulative IPC: 0.3539 (Simulation time: 07 hr 01 min 36 sec)
Heartbeat CPU 1 instructions: 1940000293 cycles: 963967946 heartbeat IPC: 2.047 cumulative IPC: 1.981 (Simulation time: 07 hr 03 min 22 sec)
Heartbeat CPU 1 instructions: 1950000293 cycles: 968838975 heartbeat IPC: 2.053 cumulative IPC: 1.981 (Simulation time: 07 hr 05 min 24 sec)
Heartbeat CPU 3 instructions: 940000125 cycles: 969920080 heartbeat IPC: 0.7655 cumulative IPC: 0.9223 (Simulation time: 07 hr 05 min 51 sec)
Heartbeat CPU 1 instructions: 1960000297 cycles: 973706529 heartbeat IPC: 2.054 cumulative IPC: 1.981 (Simulation time: 07 hr 07 min 28 sec)
Heartbeat CPU 2 instructions: 280000045 cycles: 974435359 heartbeat IPC: 0.2495 cumulative IPC: 0.2399 (Simulation time: 07 hr 07 min 47 sec)
Heartbeat CPU 1 instructions: 1970000298 cycles: 978596315 heartbeat IPC: 2.045 cumulative IPC: 1.982 (Simulation time: 07 hr 09 min 37 sec)
Heartbeat CPU 3 instructions: 950000126 cycles: 980647001 heartbeat IPC: 0.9322 cumulative IPC: 0.9224 (Simulation time: 07 hr 10 min 31 sec)
Heartbeat CPU 1 instructions: 1980000299 cycles: 983462251 heartbeat IPC: 2.055 cumulative IPC: 1.982 (Simulation time: 07 hr 11 min 43 sec)
Heartbeat CPU 0 instructions: 400000049 cycles: 985121331 heartbeat IPC: 0.3965 cumulative IPC: 0.355 (Simulation time: 07 hr 12 min 26 sec)
Heartbeat CPU 1 instructions: 1990000302 cycles: 988324783 heartbeat IPC: 2.057 cumulative IPC: 1.983 (Simulation time: 07 hr 13 min 50 sec)
*** Reached end of trace: (1, "/home/faculty/p/pgratz/dpc3_traces/603.bwaves_s-3699B.champsimtrace.xz")
Heartbeat CPU 1 instructions: 2000000303 cycles: 993186541 heartbeat IPC: 2.057 cumulative IPC: 1.983 (Simulation time: 07 hr 15 min 51 sec)
[BTB] WARNING: target of return is a lower address than the corresponding call. This is usually a problem with your trace.
[BTB] WARNING: target of return is a lower address than the corresponding call. This is usually a problem with your trace.
Heartbeat CPU 3 instructions: 960000127 cycles: 994610355 heartbeat IPC: 0.7162 cumulative IPC: 0.9194 (Simulation time: 07 hr 16 min 29 sec)
Heartbeat CPU 1 instructions: 2010000305 cycles: 998064945 heartbeat IPC: 2.05 cumulative IPC: 1.983 (Simulation time: 07 hr 17 min 59 sec)
Heartbeat CPU 1 instructions: 2020000307 cycles: 1004048015 heartbeat IPC: 1.671 cumulative IPC: 1.981 (Simulation time: 07 hr 20 min 40 sec)
Heartbeat CPU 3 instructions: 970000129 cycles: 1005190115 heartbeat IPC: 0.9452 cumulative IPC: 0.9197 (Simulation time: 07 hr 21 min 11 sec)
Heartbeat CPU 1 instructions: 2030000307 cycles: 1010506071 heartbeat IPC: 1.548 cumulative IPC: 1.979 (Simulation time: 07 hr 23 min 32 sec)
Heartbeat CPU 0 instructions: 410000051 cycles: 1012618869 heartbeat IPC: 0.3637 cumulative IPC: 0.3553 (Simulation time: 07 hr 24 min 28 sec)
Heartbeat CPU 2 instructions: 290000045 cycles: 1014310428 heartbeat IPC: 0.2508 cumulative IPC: 0.2403 (Simulation time: 07 hr 25 min 13 sec)
Heartbeat CPU 3 instructions: 980000129 cycles: 1014957016 heartbeat IPC: 1.024 cumulative IPC: 0.9207 (Simulation time: 07 hr 25 min 30 sec)
Heartbeat CPU 1 instructions: 2040000309 cycles: 1015409999 heartbeat IPC: 2.039 cumulative IPC: 1.979 (Simulation time: 07 hr 25 min 42 sec)
Heartbeat CPU 1 instructions: 2050000311 cycles: 1020314806 heartbeat IPC: 2.039 cumulative IPC: 1.979 (Simulation time: 07 hr 27 min 52 sec)
Heartbeat CPU 3 instructions: 990000132 cycles: 1024159006 heartbeat IPC: 1.087 cumulative IPC: 0.9222 (Simulation time: 07 hr 29 min 33 sec)
Heartbeat CPU 1 instructions: 2060000312 cycles: 1025188112 heartbeat IPC: 2.052 cumulative IPC: 1.979 (Simulation time: 07 hr 30 min 00 sec)
Heartbeat CPU 1 instructions: 2070000312 cycles: 1030068499 heartbeat IPC: 2.049 cumulative IPC: 1.98 (Simulation time: 07 hr 32 min 06 sec)
Heartbeat CPU 3 instructions: 1000000134 cycles: 1032940855 heartbeat IPC: 1.139 cumulative IPC: 0.9241 (Simulation time: 07 hr 33 min 24 sec)
Heartbeat CPU 1 instructions: 2080000312 cycles: 1034935942 heartbeat IPC: 2.054 cumulative IPC: 1.98 (Simulation time: 07 hr 34 min 17 sec)
Heartbeat CPU 1 instructions: 2090000312 cycles: 1039821295 heartbeat IPC: 2.047 cumulative IPC: 1.98 (Simulation time: 07 hr 36 min 27 sec)
Heartbeat CPU 0 instructions: 420000051 cycles: 1041525525 heartbeat IPC: 0.3459 cumulative IPC: 0.355 (Simulation time: 07 hr 37 min 13 sec)
Heartbeat CPU 3 instructions: 1010000134 cycles: 1041657780 heartbeat IPC: 1.147 cumulative IPC: 0.926 (Simulation time: 07 hr 37 min 16 sec)
Heartbeat CPU 1 instructions: 2100000312 cycles: 1044768484 heartbeat IPC: 2.021 cumulative IPC: 1.981 (Simulation time: 07 hr 38 min 37 sec)
Heartbeat CPU 1 instructions: 2110000314 cycles: 1049733205 heartbeat IPC: 2.014 cumulative IPC: 1.981 (Simulation time: 07 hr 40 min 46 sec)
Simulation finished CPU 2 instructions: 250000000 cycles: 1034605199 cumulative IPC: 0.2416 (Simulation time: 07 hr 40 min 58 sec)
Simulation complete CPU 3 instructions: 957558911 cycles: 1034605199 cumulative IPC: 0.9255 (Simulation time: 07 hr 40 min 58 sec)
Simulation complete CPU 2 instructions: 250000000 cycles: 1034605199 cumulative IPC: 0.2416 (Simulation time: 07 hr 40 min 58 sec)
Simulation complete CPU 1 instructions: 2049423083 cycles: 1034605199 cumulative IPC: 1.981 (Simulation time: 07 hr 40 min 58 sec)
Simulation complete CPU 0 instructions: 367698204 cycles: 1034605199 cumulative IPC: 0.3554 (Simulation time: 07 hr 40 min 58 sec)

ChampSim completed all CPUs

=== Simulation ===
CPU 0 runs /home/faculty/p/pgratz/dpc3_traces/602.gcc_s-734B.champsimtrace.xz
CPU 1 runs /home/faculty/p/pgratz/dpc3_traces/603.bwaves_s-3699B.champsimtrace.xz
CPU 2 runs /home/faculty/p/pgratz/dpc3_traces/605.mcf_s-665B.champsimtrace.xz
CPU 3 runs /home/faculty/p/pgratz/dpc3_traces/623.xalancbmk_s-700B.champsimtrace.xz

Total Simulation Statistics (not including warmup)

CPU 3 cumulative IPC: 0.9255 instructions: 957558911 cycles: 1034605199
CPU 3 Branch Prediction Accuracy: 96.47% MPKI: 10.12 Average ROB Occupancy at Mispredict: 24.65
Branch type MPKI
BRANCH_DIRECT_JUMP: 0.1072
BRANCH_INDIRECT: 0.3342
BRANCH_CONDITIONAL: 7.9
BRANCH_DIRECT_CALL: 0.0002705
BRANCH_INDIRECT_CALL: 0.3645
BRANCH_RETURN: 1.41


CPU 2 cumulative IPC: 0.2416 instructions: 250000000 cycles: 1034605199
CPU 2 Branch Prediction Accuracy: 86.9% MPKI: 32.39 Average ROB Occupancy at Mispredict: 15.44
Branch type MPKI
BRANCH_DIRECT_JUMP: 0.2565
BRANCH_INDIRECT: 0
BRANCH_CONDITIONAL: 32.14
BRANCH_DIRECT_CALL: 0
BRANCH_INDIRECT_CALL: 0.0006
BRANCH_RETURN: 0


CPU 1 cumulative IPC: 1.981 instructions: 2049423083 cycles: 1034605199
CPU 1 Branch Prediction Accuracy: 86.69% MPKI: 19.33 Average ROB Occupancy at Mispredict: 31.06
Branch type MPKI
BRANCH_DIRECT_JUMP: 0.05616
BRANCH_INDIRECT: 0
BRANCH_CONDITIONAL: 19.21
BRANCH_DIRECT_CALL: 0
BRANCH_INDIRECT_CALL: 0
BRANCH_RETURN: 0.06084


CPU 0 cumulative IPC: 0.3554 instructions: 367698204 cycles: 1034605199
CPU 0 Branch Prediction Accuracy: 94.59% MPKI: 12.92 Average ROB Occupancy at Mispredict: 49.3
Branch type MPKI
BRANCH_DIRECT_JUMP: 0.138
BRANCH_INDIRECT: 0
BRANCH_CONDITIONAL: 12.69
BRANCH_DIRECT_CALL: 0.0927
BRANCH_INDIRECT_CALL: 1.904e-05
BRANCH_RETURN: 7.343e-05

cpu3->cpu3_STLB TOTAL        ACCESS:   26340753 HIT:   24853601 MISS:    1487152 MSHR_MERGE:          0
cpu3->cpu3_STLB LOAD         ACCESS:   26340753 HIT:   24853601 MISS:    1487152 MSHR_MERGE:          0
cpu3->cpu3_STLB RFO          ACCESS:          0 HIT:          0 MISS:          0 MSHR_MERGE:          0
cpu3->cpu3_STLB PREFETCH     ACCESS:          0 HIT:          0 MISS:          0 MSHR_MERGE:          0
cpu3->cpu3_STLB WRITE        ACCESS:          0 HIT:          0 MISS:          0 MSHR_MERGE:          0
cpu3->cpu3_STLB TRANSLATION  ACCESS:          0 HIT:          0 MISS:          0 MSHR_MERGE:          0
cpu3->cpu3_STLB PREFETCH REQUESTED:          0 ISSUED:          0 USEFUL:          0 USELESS:          0
cpu3->cpu3_STLB AVERAGE MISS LATENCY: 89.28 cycles
cpu3->cpu3_L2C TOTAL        ACCESS:   52179421 HIT:   47648519 MISS:    4530902 MSHR_MERGE:          0
cpu3->cpu3_L2C LOAD         ACCESS:   45622718 HIT:   42838710 MISS:    2784008 MSHR_MERGE:          0
cpu3->cpu3_L2C RFO          ACCESS:    1435650 HIT:     252364 MISS:    1183286 MSHR_MERGE:          0
cpu3->cpu3_L2C PREFETCH     ACCESS:          0 HIT:          0 MISS:          0 MSHR_MERGE:          0
cpu3->cpu3_L2C WRITE        ACCESS:    2235115 HIT:    2235094 MISS:         21 MSHR_MERGE:          0
cpu3->cpu3_L2C TRANSLATION  ACCESS:    2885938 HIT:    2322351 MISS:     563587 MSHR_MERGE:          0
cpu3->cpu3_L2C PREFETCH REQUESTED:          0 ISSUED:          0 USEFUL:          0 USELESS:          0
cpu3->cpu3_L2C AVERAGE MISS LATENCY: 136.7 cycles
cpu3->cpu3_L1I TOTAL        ACCESS:  170170431 HIT:  166991248 MISS:    3179183 MSHR_MERGE:     853296
cpu3->cpu3_L1I LOAD         ACCESS:  170170431 HIT:  166991248 MISS:    3179183 MSHR_MERGE:     853296
cpu3->cpu3_L1I RFO          ACCESS:          0 HIT:          0 MISS:          0 MSHR_MERGE:          0
cpu3->cpu3_L1I PREFETCH     ACCESS:          0 HIT:          0 MISS:          0 MSHR_MERGE:          0
cpu3->cpu3_L1I WRITE        ACCESS:          0 HIT:          0 MISS:          0 MSHR_MERGE:          0
cpu3->cpu3_L1I TRANSLATION  ACCESS:          0 HIT:          0 MISS:          0 MSHR_MERGE:          0
cpu3->cpu3_L1I PREFETCH REQUESTED:          0 ISSUED:          0 USEFUL:          0 USELESS:          0
cpu3->cpu3_L1I AVERAGE MISS LATENCY: 11.3 cycles
cpu3->cpu3_L1D TOTAL        ACCESS:  275695055 HIT:  209179890 MISS:   66515165 MSHR_MERGE:   18896734
cpu3->cpu3_L1D LOAD         ACCESS:  206548478 HIT:  148479658 MISS:   58068820 MSHR_MERGE:   14771984
cpu3->cpu3_L1D RFO          ACCESS:          0 HIT:          0 MISS:          0 MSHR_MERGE:          0
cpu3->cpu3_L1D PREFETCH     ACCESS:          0 HIT:          0 MISS:          0 MSHR_MERGE:          0
cpu3->cpu3_L1D WRITE        ACCESS:   66166836 HIT:   60610199 MISS:    5556637 MSHR_MERGE:    4120980
cpu3->cpu3_L1D TRANSLATION  ACCESS:    2979741 HIT:      90033 MISS:    2889708 MSHR_MERGE:       3770
cpu3->cpu3_L1D PREFETCH REQUESTED:          0 ISSUED:          0 USEFUL:          0 USELESS:          0
cpu3->cpu3_L1D AVERAGE MISS LATENCY: 21.07 cycles
cpu3->cpu3_ITLB TOTAL        ACCESS:  156750913 HIT:  156019629 MISS:     731284 MSHR_MERGE:     381701
cpu3->cpu3_ITLB LOAD         ACCESS:  156750913 HIT:  156019629 MISS:     731284 MSHR_MERGE:     381701
cpu3->cpu3_ITLB RFO          ACCESS:          0 HIT:          0 MISS:          0 MSHR_MERGE:          0
cpu3->cpu3_ITLB PREFETCH     ACCESS:          0 HIT:          0 MISS:          0 MSHR_MERGE:          0
cpu3->cpu3_ITLB WRITE        ACCESS:          0 HIT:          0 MISS:          0 MSHR_MERGE:          0
cpu3->cpu3_ITLB TRANSLATION  ACCESS:          0 HIT:          0 MISS:          0 MSHR_MERGE:          0
cpu3->cpu3_ITLB PREFETCH REQUESTED:          0 ISSUED:          0 USEFUL:          0 USELESS:          0
cpu3->cpu3_ITLB AVERAGE MISS LATENCY: 12.15 cycles
cpu3->cpu3_DTLB TOTAL        ACCESS:  256727969 HIT:  219524328 MISS:   37203641 MSHR_MERGE:   11212471
cpu3->cpu3_DTLB LOAD         ACCESS:  256727969 HIT:  219524328 MISS:   37203641 MSHR_MERGE:   11212471
cpu3->cpu3_DTLB RFO          ACCESS:          0 HIT:          0 MISS:          0 MSHR_MERGE:          0
cpu3->cpu3_DTLB PREFETCH     ACCESS:          0 HIT:          0 MISS:          0 MSHR_MERGE:          0
cpu3->cpu3_DTLB WRITE        ACCESS:          0 HIT:          0 MISS:          0 MSHR_MERGE:          0
cpu3->cpu3_DTLB TRANSLATION  ACCESS:          0 HIT:          0 MISS:          0 MSHR_MERGE:          0
cpu3->cpu3_DTLB PREFETCH REQUESTED:          0 ISSUED:          0 USEFUL:          0 USELESS:          0
cpu3->cpu3_DTLB AVERAGE MISS LATENCY: 9.887 cycles
cpu2->cpu2_STLB TOTAL        ACCESS:    3694914 HIT:    3643447 MISS:      51467 MSHR_MERGE:          0
cpu2->cpu2_STLB LOAD         ACCESS:    3694914 HIT:    3643447 MISS:      51467 MSHR_MERGE:          0
cpu2->cpu2_STLB RFO          ACCESS:          0 HIT:          0 MISS:          0 MSHR_MERGE:          0
cpu2->cpu2_STLB PREFETCH     ACCESS:          0 HIT:          0 MISS:          0 MSHR_MERGE:          0
cpu2->cpu2_STLB WRITE        ACCESS:          0 HIT:          0 MISS:          0 MSHR_MERGE:          0
cpu2->cpu2_STLB TRANSLATION  ACCESS:          0 HIT:          0 MISS:          0 MSHR_MERGE:          0
cpu2->cpu2_STLB PREFETCH REQUESTED:          0 ISSUED:          0 USEFUL:          0 USELESS:          0
cpu2->cpu2_STLB AVERAGE MISS LATENCY: 552.1 cycles
cpu2->cpu2_L2C TOTAL        ACCESS:   10131047 HIT:    4681756 MISS:    5449291 MSHR_MERGE:          0
cpu2->cpu2_L2C LOAD         ACCESS:    7761235 HIT:    2781516 MISS:    4979719 MSHR_MERGE:          0
cpu2->cpu2_L2C RFO          ACCESS:     953800 HIT:     561119 MISS:     392681 MSHR_MERGE:          0
cpu2->cpu2_L2C PREFETCH     ACCESS:          0 HIT:          0 MISS:          0 MSHR_MERGE:          0
cpu2->cpu2_L2C WRITE        ACCESS:    1338930 HIT:    1338170 MISS:        760 MSHR_MERGE:          0
cpu2->cpu2_L2C TRANSLATION  ACCESS:      77082 HIT:        951 MISS:      76131 MSHR_MERGE:          0
cpu2->cpu2_L2C PREFETCH REQUESTED:          0 ISSUED:          0 USEFUL:          0 USELESS:          0
cpu2->cpu2_L2C AVERAGE MISS LATENCY: 173.4 cycles
cpu2->cpu2_L1I TOTAL        ACCESS:     551367 HIT:     551365 MISS:          2 MSHR_MERGE:          0
cpu2->cpu2_L1I LOAD         ACCESS:     551367 HIT:     551365 MISS:          2 MSHR_MERGE:          0
cpu2->cpu2_L1I RFO          ACCESS:          0 HIT:          0 MISS:          0 MSHR_MERGE:          0
cpu2->cpu2_L1I PREFETCH     ACCESS:          0 HIT:          0 MISS:          0 MSHR_MERGE:          0
cpu2->cpu2_L1I WRITE        ACCESS:          0 HIT:          0 MISS:          0 MSHR_MERGE:          0
cpu2->cpu2_L1I TRANSLATION  ACCESS:          0 HIT:          0 MISS:          0 MSHR_MERGE:          0
cpu2->cpu2_L1I PREFETCH REQUESTED:          0 ISSUED:          0 USEFUL:          0 USELESS:          0
cpu2->cpu2_L1I AVERAGE MISS LATENCY: 195 cycles
cpu2->cpu2_L1D TOTAL        ACCESS:  101639704 HIT:   89432881 MISS:   12206823 MSHR_MERGE:    3414704
cpu2->cpu2_L1D LOAD         ACCESS:   71927395 HIT:   62394802 MISS:    9532593 MSHR_MERGE:    1771358
cpu2->cpu2_L1D RFO          ACCESS:          0 HIT:          0 MISS:          0 MSHR_MERGE:          0
cpu2->cpu2_L1D PREFETCH     ACCESS:          0 HIT:          0 MISS:          0 MSHR_MERGE:          0
cpu2->cpu2_L1D WRITE        ACCESS:   29609022 HIT:   27011901 MISS:    2597121 MSHR_MERGE:    1643319
cpu2->cpu2_L1D TRANSLATION  ACCESS:     103287 HIT:      26178 MISS:      77109 MSHR_MERGE:         27
cpu2->cpu2_L1D PREFETCH REQUESTED:          0 ISSUED:          0 USEFUL:          0 USELESS:          0
cpu2->cpu2_L1D AVERAGE MISS LATENCY: 116.1 cycles
cpu2->cpu2_ITLB TOTAL        ACCESS:     488907 HIT:     488907 MISS:          0 MSHR_MERGE:          0
cpu2->cpu2_ITLB LOAD         ACCESS:     488907 HIT:     488907 MISS:          0 MSHR_MERGE:          0
cpu2->cpu2_ITLB RFO          ACCESS:          0 HIT:          0 MISS:          0 MSHR_MERGE:          0
cpu2->cpu2_ITLB PREFETCH     ACCESS:          0 HIT:          0 MISS:          0 MSHR_MERGE:          0
cpu2->cpu2_ITLB WRITE        ACCESS:          0 HIT:          0 MISS:          0 MSHR_MERGE:          0
cpu2->cpu2_ITLB TRANSLATION  ACCESS:          0 HIT:          0 MISS:          0 MSHR_MERGE:          0
cpu2->cpu2_ITLB PREFETCH REQUESTED:          0 ISSUED:          0 USEFUL:          0 USELESS:          0
cpu2->cpu2_ITLB AVERAGE MISS LATENCY: - cycles
cpu2->cpu2_DTLB TOTAL        ACCESS:   92128104 HIT:   87362425 MISS:    4765679 MSHR_MERGE:    1070765
cpu2->cpu2_DTLB LOAD         ACCESS:   92128104 HIT:   87362425 MISS:    4765679 MSHR_MERGE:    1070765
cpu2->cpu2_DTLB RFO          ACCESS:          0 HIT:          0 MISS:          0 MSHR_MERGE:          0
cpu2->cpu2_DTLB PREFETCH     ACCESS:          0 HIT:          0 MISS:          0 MSHR_MERGE:          0
cpu2->cpu2_DTLB WRITE        ACCESS:          0 HIT:          0 MISS:          0 MSHR_MERGE:          0
cpu2->cpu2_DTLB TRANSLATION  ACCESS:          0 HIT:          0 MISS:          0 MSHR_MERGE:          0
cpu2->cpu2_DTLB PREFETCH REQUESTED:          0 ISSUED:          0 USEFUL:          0 USELESS:          0
cpu2->cpu2_DTLB AVERAGE MISS LATENCY: 12.43 cycles
cpu1->cpu1_STLB TOTAL        ACCESS:       6126 HIT:        206 MISS:       5920 MSHR_MERGE:          0
cpu1->cpu1_STLB LOAD         ACCESS:       6126 HIT:        206 MISS:       5920 MSHR_MERGE:          0
cpu1->cpu1_STLB RFO          ACCESS:          0 HIT:          0 MISS:          0 MSHR_MERGE:          0
cpu1->cpu1_STLB PREFETCH     ACCESS:          0 HIT:          0 MISS:          0 MSHR_MERGE:          0
cpu1->cpu1_STLB WRITE        ACCESS:          0 HIT:          0 MISS:          0 MSHR_MERGE:          0
cpu1->cpu1_STLB TRANSLATION  ACCESS:          0 HIT:          0 MISS:          0 MSHR_MERGE:          0
cpu1->cpu1_STLB PREFETCH REQUESTED:          0 ISSUED:          0 USEFUL:          0 USELESS:          0
cpu1->cpu1_STLB AVERAGE MISS LATENCY: 675.9 cycles
cpu1->cpu1_L2C TOTAL        ACCESS:     710954 HIT:     325032 MISS:     385922 MSHR_MERGE:          0
cpu1->cpu1_L2C LOAD         ACCESS:      67492 HIT:       4281 MISS:      63211 MSHR_MERGE:          0
cpu1->cpu1_L2C RFO          ACCESS:     317712 HIT:       2714 MISS:     314998 MSHR_MERGE:          0
cpu1->cpu1_L2C PREFETCH     ACCESS:          0 HIT:          0 MISS:          0 MSHR_MERGE:          0
cpu1->cpu1_L2C WRITE        ACCESS:     318216 HIT:     317795 MISS:        421 MSHR_MERGE:          0
cpu1->cpu1_L2C TRANSLATION  ACCESS:       7534 HIT:        242 MISS:       7292 MSHR_MERGE:          0
cpu1->cpu1_L2C PREFETCH REQUESTED:          0 ISSUED:          0 USEFUL:          0 USELESS:          0
cpu1->cpu1_L2C AVERAGE MISS LATENCY: 277.4 cycles
cpu1->cpu1_L1I TOTAL        ACCESS:   25793149 HIT:   25793149 MISS:          0 MSHR_MERGE:          0
cpu1->cpu1_L1I LOAD         ACCESS:   25793149 HIT:   25793149 MISS:          0 MSHR_MERGE:          0
cpu1->cpu1_L1I RFO          ACCESS:          0 HIT:          0 MISS:          0 MSHR_MERGE:          0
cpu1->cpu1_L1I PREFETCH     ACCESS:          0 HIT:          0 MISS:          0 MSHR_MERGE:          0
cpu1->cpu1_L1I WRITE        ACCESS:          0 HIT:          0 MISS:          0 MSHR_MERGE:          0
cpu1->cpu1_L1I TRANSLATION  ACCESS:          0 HIT:          0 MISS:          0 MSHR_MERGE:          0
cpu1->cpu1_L1I PREFETCH REQUESTED:          0 ISSUED:          0 USEFUL:          0 USELESS:          0
cpu1->cpu1_L1I AVERAGE MISS LATENCY: - cycles
cpu1->cpu1_L1D TOTAL        ACCESS:  490782374 HIT:  488470187 MISS:    2312187 MSHR_MERGE:    1919434
cpu1->cpu1_L1D LOAD         ACCESS:  412122096 HIT:  412005975 MISS:     116121 MSHR_MERGE:      48629
cpu1->cpu1_L1D RFO          ACCESS:          0 HIT:          0 MISS:          0 MSHR_MERGE:          0
cpu1->cpu1_L1D PREFETCH     ACCESS:          0 HIT:          0 MISS:          0 MSHR_MERGE:          0
cpu1->cpu1_L1D WRITE        ACCESS:   78648429 HIT:   76459900 MISS:    2188529 MSHR_MERGE:    1870802
cpu1->cpu1_L1D TRANSLATION  ACCESS:      11849 HIT:       4312 MISS:       7537 MSHR_MERGE:          3
cpu1->cpu1_L1D PREFETCH REQUESTED:          0 ISSUED:          0 USEFUL:          0 USELESS:          0
cpu1->cpu1_L1D AVERAGE MISS LATENCY: 281.4 cycles
cpu1->cpu1_ITLB TOTAL        ACCESS:   20527137 HIT:   20527137 MISS:          0 MSHR_MERGE:          0
cpu1->cpu1_ITLB LOAD         ACCESS:   20527137 HIT:   20527137 MISS:          0 MSHR_MERGE:          0
cpu1->cpu1_ITLB RFO          ACCESS:          0 HIT:          0 MISS:          0 MSHR_MERGE:          0
cpu1->cpu1_ITLB PREFETCH     ACCESS:          0 HIT:          0 MISS:          0 MSHR_MERGE:          0
cpu1->cpu1_ITLB WRITE        ACCESS:          0 HIT:          0 MISS:          0 MSHR_MERGE:          0
cpu1->cpu1_ITLB TRANSLATION  ACCESS:          0 HIT:          0 MISS:          0 MSHR_MERGE:          0
cpu1->cpu1_ITLB PREFETCH REQUESTED:          0 ISSUED:          0 USEFUL:          0 USELESS:          0
cpu1->cpu1_ITLB AVERAGE MISS LATENCY: - cycles
cpu1->cpu1_DTLB TOTAL        ACCESS:  475067260 HIT:  475010078 MISS:      57182 MSHR_MERGE:      51056
cpu1->cpu1_DTLB LOAD         ACCESS:  475067260 HIT:  475010078 MISS:      57182 MSHR_MERGE:      51056
cpu1->cpu1_DTLB RFO          ACCESS:          0 HIT:          0 MISS:          0 MSHR_MERGE:          0
cpu1->cpu1_DTLB PREFETCH     ACCESS:          0 HIT:          0 MISS:          0 MSHR_MERGE:          0
cpu1->cpu1_DTLB WRITE        ACCESS:          0 HIT:          0 MISS:          0 MSHR_MERGE:          0
cpu1->cpu1_DTLB TRANSLATION  ACCESS:          0 HIT:          0 MISS:          0 MSHR_MERGE:          0
cpu1->cpu1_DTLB PREFETCH REQUESTED:          0 ISSUED:          0 USEFUL:          0 USELESS:          0
cpu1->cpu1_DTLB AVERAGE MISS LATENCY: 659.1 cycles
cpu0->cpu0_STLB TOTAL        ACCESS:     265622 HIT:     174204 MISS:      91418 MSHR_MERGE:          0
cpu0->cpu0_STLB LOAD         ACCESS:     265622 HIT:     174204 MISS:      91418 MSHR_MERGE:          0
cpu0->cpu0_STLB RFO          ACCESS:          0 HIT:          0 MISS:          0 MSHR_MERGE:          0
cpu0->cpu0_STLB PREFETCH     ACCESS:          0 HIT:          0 MISS:          0 MSHR_MERGE:          0
cpu0->cpu0_STLB WRITE        ACCESS:          0 HIT:          0 MISS:          0 MSHR_MERGE:          0
cpu0->cpu0_STLB TRANSLATION  ACCESS:          0 HIT:          0 MISS:          0 MSHR_MERGE:          0
cpu0->cpu0_STLB PREFETCH REQUESTED:          0 ISSUED:          0 USEFUL:          0 USELESS:          0
cpu0->cpu0_STLB AVERAGE MISS LATENCY: 386.6 cycles
cpu0->cpu0_L2C TOTAL        ACCESS:    6520515 HIT:    3123324 MISS:    3397191 MSHR_MERGE:          0
cpu0->cpu0_L2C LOAD         ACCESS:    6296992 HIT:    3037792 MISS:    3259200 MSHR_MERGE:          0
cpu0->cpu0_L2C RFO          ACCESS:       6571 HIT:       1271 MISS:       5300 MSHR_MERGE:          0
cpu0->cpu0_L2C PREFETCH     ACCESS:          0 HIT:          0 MISS:          0 MSHR_MERGE:          0
cpu0->cpu0_L2C WRITE        ACCESS:      77542 HIT:      77460 MISS:         82 MSHR_MERGE:          0
cpu0->cpu0_L2C TRANSLATION  ACCESS:     139410 HIT:       6801 MISS:     132609 MSHR_MERGE:          0
cpu0->cpu0_L2C PREFETCH REQUESTED:          0 ISSUED:          0 USEFUL:          0 USELESS:          0
cpu0->cpu0_L2C AVERAGE MISS LATENCY: 233.9 cycles
cpu0->cpu0_L1I TOTAL        ACCESS:    1326430 HIT:    1326325 MISS:        105 MSHR_MERGE:         16
cpu0->cpu0_L1I LOAD         ACCESS:    1326430 HIT:    1326325 MISS:        105 MSHR_MERGE:         16
cpu0->cpu0_L1I RFO          ACCESS:          0 HIT:          0 MISS:          0 MSHR_MERGE:          0
cpu0->cpu0_L1I PREFETCH     ACCESS:          0 HIT:          0 MISS:          0 MSHR_MERGE:          0
cpu0->cpu0_L1I WRITE        ACCESS:          0 HIT:          0 MISS:          0 MSHR_MERGE:          0
cpu0->cpu0_L1I TRANSLATION  ACCESS:          0 HIT:          0 MISS:          0 MSHR_MERGE:          0
cpu0->cpu0_L1I PREFETCH REQUESTED:          0 ISSUED:          0 USEFUL:          0 USELESS:          0
cpu0->cpu0_L1I AVERAGE MISS LATENCY: 230.5 cycles
cpu0->cpu0_L1D TOTAL        ACCESS:  112187087 HIT:   97098955 MISS:   15088132 MSHR_MERGE:    8645244
cpu0->cpu0_L1D LOAD         ACCESS:   75554090 HIT:   60641024 MISS:   14913066 MSHR_MERGE:    8616163
cpu0->cpu0_L1D RFO          ACCESS:          0 HIT:          0 MISS:          0 MSHR_MERGE:          0
cpu0->cpu0_L1D PREFETCH     ACCESS:          0 HIT:          0 MISS:          0 MSHR_MERGE:          0
cpu0->cpu0_L1D WRITE        ACCESS:   36443157 HIT:   36407645 MISS:      35512 MSHR_MERGE:      28937
cpu0->cpu0_L1D TRANSLATION  ACCESS:     189840 HIT:      50286 MISS:     139554 MSHR_MERGE:        144
cpu0->cpu0_L1D PREFETCH REQUESTED:          0 ISSUED:          0 USEFUL:          0 USELESS:          0
cpu0->cpu0_L1D AVERAGE MISS LATENCY: 132 cycles
cpu0->cpu0_ITLB TOTAL        ACCESS:    1227334 HIT:    1227316 MISS:         18 MSHR_MERGE:          8
cpu0->cpu0_ITLB LOAD         ACCESS:    1227334 HIT:    1227316 MISS:         18 MSHR_MERGE:          8
cpu0->cpu0_ITLB RFO          ACCESS:          0 HIT:          0 MISS:          0 MSHR_MERGE:          0
cpu0->cpu0_ITLB PREFETCH     ACCESS:          0 HIT:          0 MISS:          0 MSHR_MERGE:          0
cpu0->cpu0_ITLB WRITE        ACCESS:          0 HIT:          0 MISS:          0 MSHR_MERGE:          0
cpu0->cpu0_ITLB TRANSLATION  ACCESS:          0 HIT:          0 MISS:          0 MSHR_MERGE:          0
cpu0->cpu0_ITLB PREFETCH REQUESTED:          0 ISSUED:          0 USEFUL:          0 USELESS:          0
cpu0->cpu0_ITLB AVERAGE MISS LATENCY: 947.6 cycles
cpu0->cpu0_DTLB TOTAL        ACCESS:  111301544 HIT:  110790272 MISS:     511272 MSHR_MERGE:     245660
cpu0->cpu0_DTLB LOAD         ACCESS:  111301544 HIT:  110790272 MISS:     511272 MSHR_MERGE:     245660
cpu0->cpu0_DTLB RFO          ACCESS:          0 HIT:          0 MISS:          0 MSHR_MERGE:          0
cpu0->cpu0_DTLB PREFETCH     ACCESS:          0 HIT:          0 MISS:          0 MSHR_MERGE:          0
cpu0->cpu0_DTLB WRITE        ACCESS:          0 HIT:          0 MISS:          0 MSHR_MERGE:          0
cpu0->cpu0_DTLB TRANSLATION  ACCESS:          0 HIT:          0 MISS:          0 MSHR_MERGE:          0
cpu0->cpu0_DTLB PREFETCH REQUESTED:          0 ISSUED:          0 USEFUL:          0 USELESS:          0
cpu0->cpu0_DTLB AVERAGE MISS LATENCY: 138.4 cycles
cpu0->LLC TOTAL        ACCESS:    3439596 HIT:      31584 MISS:    3408012 MSHR_MERGE:          0
cpu0->LLC LOAD         ACCESS:    3259200 HIT:       6620 MISS:    3252580 MSHR_MERGE:          0
cpu0->LLC RFO          ACCESS:       5300 HIT:         16 MISS:       5284 MSHR_MERGE:          0
cpu0->LLC PREFETCH     ACCESS:          0 HIT:          0 MISS:          0 MSHR_MERGE:          0
cpu0->LLC WRITE        ACCESS:      42487 HIT:      24054 MISS:      18433 MSHR_MERGE:          0
cpu0->LLC TRANSLATION  ACCESS:     132609 HIT:        894 MISS:     131715 MSHR_MERGE:          0
cpu0->LLC PREFETCH REQUESTED:          0 ISSUED:          0 USEFUL:          0 USELESS:          0
cpu0->LLC AVERAGE MISS LATENCY: 661.9 cycles
cpu1->LLC TOTAL        ACCESS:     700978 HIT:     146239 MISS:     554739 MSHR_MERGE:          0
cpu1->LLC LOAD         ACCESS:      63211 HIT:          0 MISS:      63211 MSHR_MERGE:          0
cpu1->LLC RFO          ACCESS:     314998 HIT:          0 MISS:     314998 MSHR_MERGE:          0
cpu1->LLC PREFETCH     ACCESS:          0 HIT:          0 MISS:          0 MSHR_MERGE:          0
cpu1->LLC WRITE        ACCESS:     315477 HIT:     146239 MISS:     169238 MSHR_MERGE:          0
cpu1->LLC TRANSLATION  ACCESS:       7292 HIT:          0 MISS:       7292 MSHR_MERGE:          0
cpu1->LLC PREFETCH REQUESTED:          0 ISSUED:          0 USEFUL:          0 USELESS:          0
cpu1->LLC AVERAGE MISS LATENCY: 4067 cycles
cpu2->LLC TOTAL        ACCESS:    6084561 HIT:    2121718 MISS:    3962843 MSHR_MERGE:          0
cpu2->LLC LOAD         ACCESS:    4979718 HIT:    1336907 MISS:    3642811 MSHR_MERGE:          0
cpu2->LLC RFO          ACCESS:     392681 HIT:     316430 MISS:      76251 MSHR_MERGE:          0
cpu2->LLC PREFETCH     ACCESS:          0 HIT:          0 MISS:          0 MSHR_MERGE:          0
cpu2->LLC WRITE        ACCESS:     636031 HIT:     460335 MISS:     175696 MSHR_MERGE:          0
cpu2->LLC TRANSLATION  ACCESS:      76131 HIT:       8046 MISS:      68085 MSHR_MERGE:          0
cpu2->LLC PREFETCH REQUESTED:          0 ISSUED:          0 USEFUL:          0 USELESS:          0
cpu2->LLC AVERAGE MISS LATENCY: 569.3 cycles
cpu3->LLC TOTAL        ACCESS:    5983374 HIT:    3516558 MISS:    2466816 MSHR_MERGE:          0
cpu3->LLC LOAD         ACCESS:    2784008 HIT:    2193672 MISS:     590336 MSHR_MERGE:          0
cpu3->LLC RFO          ACCESS:    1183286 HIT:      13761 MISS:    1169525 MSHR_MERGE:          0
cpu3->LLC PREFETCH     ACCESS:          0 HIT:          0 MISS:          0 MSHR_MERGE:          0
cpu3->LLC WRITE        ACCESS:    1452493 HIT:    1109084 MISS:     343409 MSHR_MERGE:          0
cpu3->LLC TRANSLATION  ACCESS:     563587 HIT:     200041 MISS:     363546 MSHR_MERGE:          0
cpu3->LLC PREFETCH REQUESTED:          0 ISSUED:          0 USEFUL:          0 USELESS:          0
cpu3->LLC AVERAGE MISS LATENCY: 914.5 cycles

Region of Interest Statistics

CPU 3 cumulative IPC: 0.8973 instructions: 250000001 cycles: 278605087
CPU 3 Branch Prediction Accuracy: 96.28% MPKI: 10.51 Average ROB Occupancy at Mispredict: 24.42
[...]
cpu3->cpu3_L1I PREFETCH     ACCESS:          0 HIT:          0 MISS:          0 MSHR_MERGE:          0
cpu3->cpu3_L1I WRITE        ACCESS:          0 HIT:          0 MISS:          0 MSHR_MERGE:          0
cpu3->cpu3_L1I TRANSLATION  ACCESS:          0 HIT:          0 MISS:          0 MSHR_MERGE:          0
cpu3->cpu3_L1I PREFETCH REQUESTED:          0 ISSUED:          0 USEFUL:          0 USELESS:          0
cpu3->cpu3_L1I AVERAGE MISS LATENCY: 11.3 cycles
cpu3->cpu3_L1D TOTAL        ACCESS:  275695055 HIT:  209179890 MISS:   66515165 MSHR_MERGE:   18896734
cpu3->cpu3_L1D LOAD         ACCESS:  206548478 HIT:  148479658 MISS:   58068820 MSHR_MERGE:   14771984
cpu3->cpu3_L1D RFO          ACCESS:          0 HIT:          0 MISS:          0 MSHR_MERGE:          0
cpu3->cpu3_L1D PREFETCH     ACCESS:          0 HIT:          0 MISS:          0 MSHR_MERGE:          0
cpu3->cpu3_L1D WRITE        ACCESS:   66166836 HIT:   60610199 MISS:    5556637 MSHR_MERGE:    4120980
cpu3->cpu3_L1D TRANSLATION  ACCESS:    2979741 HIT:      90033 MISS:    2889708 MSHR_MERGE:       3770
cpu3->cpu3_L1D PREFETCH REQUESTED:          0 ISSUED:          0 USEFUL:          0 USELESS:          0
cpu3->cpu3_L1D AVERAGE MISS LATENCY: 21.07 cycles
cpu3->cpu3_ITLB TOTAL        ACCESS:  156750913 HIT:  156019629 MISS:     731284 MSHR_MERGE:     381701
cpu3->cpu3_ITLB LOAD         ACCESS:  156750913 HIT:  156019629 MISS:     731284 MSHR_MERGE:     381701
cpu3->cpu3_ITLB RFO          ACCESS:          0 HIT:          0 MISS:          0 MSHR_MERGE:          0
cpu3->cpu3_ITLB PREFETCH     ACCESS:          0 HIT:          0 MISS:          0 MSHR_MERGE:          0
cpu3->cpu3_ITLB WRITE        ACCESS:          0 HIT:          0 MISS:          0 MSHR_MERGE:          0
cpu3->cpu3_ITLB TRANSLATION  ACCESS:          0 HIT:          0 MISS:          0 MSHR_MERGE:          0
cpu3->cpu3_ITLB PREFETCH REQUESTED:          0 ISSUED:          0 USEFUL:          0 USELESS:          0
cpu3->cpu3_ITLB AVERAGE MISS LATENCY: 12.15 cycles
cpu3->cpu3_DTLB TOTAL        ACCESS:  256727969 HIT:  219524328 MISS:   37203641 MSHR_MERGE:   11212471
cpu3->cpu3_DTLB LOAD         ACCESS:  256727969 HIT:  219524328 MISS:   37203641 MSHR_MERGE:   11212471
cpu3->cpu3_DTLB RFO          ACCESS:          0 HIT:          0 MISS:          0 MSHR_MERGE:          0
cpu3->cpu3_DTLB PREFETCH     ACCESS:          0 HIT:          0 MISS:          0 MSHR_MERGE:          0
cpu3->cpu3_DTLB WRITE        ACCESS:          0 HIT:          0 MISS:          0 MSHR_MERGE:          0
cpu3->cpu3_DTLB TRANSLATION  ACCESS:          0 HIT:          0 MISS:          0 MSHR_MERGE:          0
cpu3->cpu3_DTLB PREFETCH REQUESTED:          0 ISSUED:          0 USEFUL:          0 USELESS:          0
cpu3->cpu3_DTLB AVERAGE MISS LATENCY: 9.887 cycles
cpu2->cpu2_STLB TOTAL        ACCESS:    3694914 HIT:    3643447 MISS:      51467 MSHR_MERGE:          0
cpu2->cpu2_STLB LOAD         ACCESS:    3694914 HIT:    3643447 MISS:      51467 MSHR_MERGE:          0
cpu2->cpu2_STLB RFO          ACCESS:          0 HIT:          0 MISS:          0 MSHR_MERGE:          0
cpu2->cpu2_STLB PREFETCH     ACCESS:          0 HIT:          0 MISS:          0 MSHR_MERGE:          0
cpu2->cpu2_STLB WRITE        ACCESS:          0 HIT:          0 MISS:          0 MSHR_MERGE:          0
cpu2->cpu2_STLB TRANSLATION  ACCESS:          0 HIT:          0 MISS:          0 MSHR_MERGE:          0
cpu2->cpu2_STLB PREFETCH REQUESTED:          0 ISSUED:          0 USEFUL:          0 USELESS:          0
cpu2->cpu2_STLB AVERAGE MISS LATENCY: 552.1 cycles
cpu2->cpu2_L2C TOTAL        ACCESS:   10131047 HIT:    4681756 MISS:    5449291 MSHR_MERGE:          0
cpu2->cpu2_L2C LOAD         ACCESS:    7761235 HIT:    2781516 MISS:    4979719 MSHR_MERGE:          0
cpu2->cpu2_L2C RFO          ACCESS:     953800 HIT:     561119 MISS:     392681 MSHR_MERGE:          0
cpu2->cpu2_L2C PREFETCH     ACCESS:          0 HIT:          0 MISS:          0 MSHR_MERGE:          0
cpu2->cpu2_L2C WRITE        ACCESS:    1338930 HIT:    1338170 MISS:        760 MSHR_MERGE:          0
cpu2->cpu2_L2C TRANSLATION  ACCESS:      77082 HIT:        951 MISS:      76131 MSHR_MERGE:          0
cpu2->cpu2_L2C PREFETCH REQUESTED:          0 ISSUED:          0 USEFUL:          0 USELESS:          0
cpu2->cpu2_L2C AVERAGE MISS LATENCY: 173.4 cycles
cpu2->cpu2_L1I TOTAL        ACCESS:     551367 HIT:     551365 MISS:          2 MSHR_MERGE:          0
cpu2->cpu2_L1I LOAD         ACCESS:     551367 HIT:     551365 MISS:          2 MSHR_MERGE:          0
cpu2->cpu2_L1I RFO          ACCESS:          0 HIT:          0 MISS:          0 MSHR_MERGE:          0
cpu2->cpu2_L1I PREFETCH     ACCESS:          0 HIT:          0 MISS:          0 MSHR_MERGE:          0
cpu2->cpu2_L1I WRITE        ACCESS:          0 HIT:          0 MISS:          0 MSHR_MERGE:          0
cpu2->cpu2_L1I TRANSLATION  ACCESS:          0 HIT:          0 MISS:          0 MSHR_MERGE:          0
cpu2->cpu2_L1I PREFETCH REQUESTED:          0 ISSUED:          0 USEFUL:          0 USELESS:          0
cpu2->cpu2_L1I AVERAGE MISS LATENCY: 195 cycles
cpu2->cpu2_L1D TOTAL        ACCESS:  101639704 HIT:   89432881 MISS:   12206823 MSHR_MERGE:    3414704
cpu2->cpu2_L1D LOAD         ACCESS:   71927395 HIT:   62394802 MISS:    9532593 MSHR_MERGE:    1771358
cpu2->cpu2_L1D RFO          ACCESS:          0 HIT:          0 MISS:          0 MSHR_MERGE:          0
cpu2->cpu2_L1D PREFETCH     ACCESS:          0 HIT:          0 MISS:          0 MSHR_MERGE:          0
cpu2->cpu2_L1D WRITE        ACCESS:   29609022 HIT:   27011901 MISS:    2597121 MSHR_MERGE:    1643319
cpu2->cpu2_L1D TRANSLATION  ACCESS:     103287 HIT:      26178 MISS:      77109 MSHR_MERGE:         27
cpu2->cpu2_L1D PREFETCH REQUESTED:          0 ISSUED:          0 USEFUL:          0 USELESS:          0
cpu2->cpu2_L1D AVERAGE MISS LATENCY: 116.1 cycles
cpu2->cpu2_ITLB TOTAL        ACCESS:     488907 HIT:     488907 MISS:          0 MSHR_MERGE:          0
cpu2->cpu2_ITLB LOAD         ACCESS:     488907 HIT:     488907 MISS:          0 MSHR_MERGE:          0
cpu2->cpu2_ITLB RFO          ACCESS:          0 HIT:          0 MISS:          0 MSHR_MERGE:          0
cpu2->cpu2_ITLB PREFETCH     ACCESS:          0 HIT:          0 MISS:          0 MSHR_MERGE:          0
cpu2->cpu2_ITLB WRITE        ACCESS:          0 HIT:          0 MISS:          0 MSHR_MERGE:          0
cpu2->cpu2_ITLB TRANSLATION  ACCESS:          0 HIT:          0 MISS:          0 MSHR_MERGE:          0
cpu2->cpu2_ITLB PREFETCH REQUESTED:          0 ISSUED:          0 USEFUL:          0 USELESS:          0
cpu2->cpu2_ITLB AVERAGE MISS LATENCY: - cycles
cpu2->cpu2_DTLB TOTAL        ACCESS:   92128104 HIT:   87362425 MISS:    4765679 MSHR_MERGE:    1070765
cpu2->cpu2_DTLB LOAD         ACCESS:   92128104 HIT:   87362425 MISS:    4765679 MSHR_MERGE:    1070765
cpu2->cpu2_DTLB RFO          ACCESS:          0 HIT:          0 MISS:          0 MSHR_MERGE:          0
cpu2->cpu2_DTLB PREFETCH     ACCESS:          0 HIT:          0 MISS:          0 MSHR_MERGE:          0
cpu2->cpu2_DTLB WRITE        ACCESS:          0 HIT:          0 MISS:          0 MSHR_MERGE:          0
cpu2->cpu2_DTLB TRANSLATION  ACCESS:          0 HIT:          0 MISS:          0 MSHR_MERGE:          0
cpu2->cpu2_DTLB PREFETCH REQUESTED:          0 ISSUED:          0 USEFUL:          0 USELESS:          0
cpu2->cpu2_DTLB AVERAGE MISS LATENCY: 12.43 cycles
cpu1->cpu1_STLB TOTAL        ACCESS:       6126 HIT:        206 MISS:       5920 MSHR_MERGE:          0
cpu1->cpu1_STLB LOAD         ACCESS:       6126 HIT:        206 MISS:       5920 MSHR_MERGE:          0
cpu1->cpu1_STLB RFO          ACCESS:          0 HIT:          0 MISS:          0 MSHR_MERGE:          0
cpu1->cpu1_STLB PREFETCH     ACCESS:          0 HIT:          0 MISS:          0 MSHR_MERGE:          0
cpu1->cpu1_STLB WRITE        ACCESS:          0 HIT:          0 MISS:          0 MSHR_MERGE:          0
cpu1->cpu1_STLB TRANSLATION  ACCESS:          0 HIT:          0 MISS:          0 MSHR_MERGE:          0
cpu1->cpu1_STLB PREFETCH REQUESTED:          0 ISSUED:          0 USEFUL:          0 USELESS:          0
cpu1->cpu1_STLB AVERAGE MISS LATENCY: 675.9 cycles
cpu1->cpu1_L2C TOTAL        ACCESS:     710954 HIT:     325032 MISS:     385922 MSHR_MERGE:          0
cpu1->cpu1_L2C LOAD         ACCESS:      67492 HIT:       4281 MISS:      63211 MSHR_MERGE:          0
cpu1->cpu1_L2C RFO          ACCESS:     317712 HIT:       2714 MISS:     314998 MSHR_MERGE:          0
cpu1->cpu1_L2C PREFETCH     ACCESS:          0 HIT:          0 MISS:          0 MSHR_MERGE:          0
cpu1->cpu1_L2C WRITE        ACCESS:     318216 HIT:     317795 MISS:        421 MSHR_MERGE:          0
cpu1->cpu1_L2C TRANSLATION  ACCESS:       7534 HIT:        242 MISS:       7292 MSHR_MERGE:          0
cpu1->cpu1_L2C PREFETCH REQUESTED:          0 ISSUED:          0 USEFUL:          0 USELESS:          0
cpu1->cpu1_L2C AVERAGE MISS LATENCY: 277.4 cycles
cpu1->cpu1_L1I TOTAL        ACCESS:   25793149 HIT:   25793149 MISS:          0 MSHR_MERGE:          0
cpu1->cpu1_L1I LOAD         ACCESS:   25793149 HIT:   25793149 MISS:          0 MSHR_MERGE:          0
cpu1->cpu1_L1I RFO          ACCESS:          0 HIT:          0 MISS:          0 MSHR_MERGE:          0
cpu1->cpu1_L1I PREFETCH     ACCESS:          0 HIT:          0 MISS:          0 MSHR_MERGE:          0
cpu1->cpu1_L1I WRITE        ACCESS:          0 HIT:          0 MISS:          0 MSHR_MERGE:          0
cpu1->cpu1_L1I TRANSLATION  ACCESS:          0 HIT:          0 MISS:          0 MSHR_MERGE:          0
cpu1->cpu1_L1I PREFETCH REQUESTED:          0 ISSUED:          0 USEFUL:          0 USELESS:          0
cpu1->cpu1_L1I AVERAGE MISS LATENCY: - cycles
cpu1->cpu1_L1D TOTAL        ACCESS:  490782374 HIT:  488470187 MISS:    2312187 MSHR_MERGE:    1919434
cpu1->cpu1_L1D LOAD         ACCESS:  412122096 HIT:  412005975 MISS:     116121 MSHR_MERGE:      48629
cpu1->cpu1_L1D RFO          ACCESS:          0 HIT:          0 MISS:          0 MSHR_MERGE:          0
cpu1->cpu1_L1D PREFETCH     ACCESS:          0 HIT:          0 MISS:          0 MSHR_MERGE:          0
cpu1->cpu1_L1D WRITE        ACCESS:   78648429 HIT:   76459900 MISS:    2188529 MSHR_MERGE:    1870802
cpu1->cpu1_L1D TRANSLATION  ACCESS:      11849 HIT:       4312 MISS:       7537 MSHR_MERGE:          3
cpu1->cpu1_L1D PREFETCH REQUESTED:          0 ISSUED:          0 USEFUL:          0 USELESS:          0
cpu1->cpu1_L1D AVERAGE MISS LATENCY: 281.4 cycles
cpu1->cpu1_ITLB TOTAL        ACCESS:   20527137 HIT:   20527137 MISS:          0 MSHR_MERGE:          0
cpu1->cpu1_ITLB LOAD         ACCESS:   20527137 HIT:   20527137 MISS:          0 MSHR_MERGE:          0
cpu1->cpu1_ITLB RFO          ACCESS:          0 HIT:          0 MISS:          0 MSHR_MERGE:          0
cpu1->cpu1_ITLB PREFETCH     ACCESS:          0 HIT:          0 MISS:          0 MSHR_MERGE:          0
cpu1->cpu1_ITLB WRITE        ACCESS:          0 HIT:          0 MISS:          0 MSHR_MERGE:          0
cpu1->cpu1_ITLB TRANSLATION  ACCESS:          0 HIT:          0 MISS:          0 MSHR_MERGE:          0
cpu1->cpu1_ITLB PREFETCH REQUESTED:          0 ISSUED:          0 USEFUL:          0 USELESS:          0
cpu1->cpu1_ITLB AVERAGE MISS LATENCY: - cycles
cpu1->cpu1_DTLB TOTAL        ACCESS:  475067260 HIT:  475010078 MISS:      57182 MSHR_MERGE:      51056
cpu1->cpu1_DTLB LOAD         ACCESS:  475067260 HIT:  475010078 MISS:      57182 MSHR_MERGE:      51056
cpu1->cpu1_DTLB RFO          ACCESS:          0 HIT:          0 MISS:          0 MSHR_MERGE:          0
cpu1->cpu1_DTLB PREFETCH     ACCESS:          0 HIT:          0 MISS:          0 MSHR_MERGE:          0
cpu1->cpu1_DTLB WRITE        ACCESS:          0 HIT:          0 MISS:          0 MSHR_MERGE:          0
cpu1->cpu1_DTLB TRANSLATION  ACCESS:          0 HIT:          0 MISS:          0 MSHR_MERGE:          0
cpu1->cpu1_DTLB PREFETCH REQUESTED:          0 ISSUED:          0 USEFUL:          0 USELESS:          0
cpu1->cpu1_DTLB AVERAGE MISS LATENCY: 659.1 cycles
cpu0->cpu0_STLB TOTAL        ACCESS:     265622 HIT:     174204 MISS:      91418 MSHR_MERGE:          0
cpu0->cpu0_STLB LOAD         ACCESS:     265622 HIT:     174204 MISS:      91418 MSHR_MERGE:          0
cpu0->cpu0_STLB RFO          ACCESS:          0 HIT:          0 MISS:          0 MSHR_MERGE:          0
cpu0->cpu0_STLB PREFETCH     ACCESS:          0 HIT:          0 MISS:          0 MSHR_MERGE:          0
cpu0->cpu0_STLB WRITE        ACCESS:          0 HIT:          0 MISS:          0 MSHR_MERGE:          0
cpu0->cpu0_STLB TRANSLATION  ACCESS:          0 HIT:          0 MISS:          0 MSHR_MERGE:          0
cpu0->cpu0_STLB PREFETCH REQUESTED:          0 ISSUED:          0 USEFUL:          0 USELESS:          0
cpu0->cpu0_STLB AVERAGE MISS LATENCY: 386.6 cycles
cpu0->cpu0_L2C TOTAL        ACCESS:    6520515 HIT:    3123324 MISS:    3397191 MSHR_MERGE:          0
cpu0->cpu0_L2C LOAD         ACCESS:    6296992 HIT:    3037792 MISS:    3259200 MSHR_MERGE:          0
cpu0->cpu0_L2C RFO          ACCESS:       6571 HIT:       1271 MISS:       5300 MSHR_MERGE:          0
cpu0->cpu0_L2C PREFETCH     ACCESS:          0 HIT:          0 MISS:          0 MSHR_MERGE:          0
cpu0->cpu0_L2C WRITE        ACCESS:      77542 HIT:      77460 MISS:         82 MSHR_MERGE:          0
cpu0->cpu0_L2C TRANSLATION  ACCESS:     139410 HIT:       6801 MISS:     132609 MSHR_MERGE:          0
cpu0->cpu0_L2C PREFETCH REQUESTED:          0 ISSUED:          0 USEFUL:          0 USELESS:          0
cpu0->cpu0_L2C AVERAGE MISS LATENCY: 233.9 cycles
cpu0->cpu0_L1I TOTAL        ACCESS:    1326430 HIT:    1326325 MISS:        105 MSHR_MERGE:         16
cpu0->cpu0_L1I LOAD         ACCESS:    1326430 HIT:    1326325 MISS:        105 MSHR_MERGE:         16
cpu0->cpu0_L1I RFO          ACCESS:          0 HIT:          0 MISS:          0 MSHR_MERGE:          0
cpu0->cpu0_L1I PREFETCH     ACCESS:          0 HIT:          0 MISS:          0 MSHR_MERGE:          0
cpu0->cpu0_L1I WRITE        ACCESS:          0 HIT:          0 MISS:          0 MSHR_MERGE:          0
cpu0->cpu0_L1I TRANSLATION  ACCESS:          0 HIT:          0 MISS:          0 MSHR_MERGE:          0
cpu0->cpu0_L1I PREFETCH REQUESTED:          0 ISSUED:          0 USEFUL:          0 USELESS:          0
cpu0->cpu0_L1I AVERAGE MISS LATENCY: 230.5 cycles
cpu0->cpu0_L1D TOTAL        ACCESS:  112187087 HIT:   97098955 MISS:   15088132 MSHR_MERGE:    8645244
cpu0->cpu0_L1D LOAD         ACCESS:   75554090 HIT:   60641024 MISS:   14913066 MSHR_MERGE:    8616163
cpu0->cpu0_L1D RFO          ACCESS:          0 HIT:          0 MISS:          0 MSHR_MERGE:          0
cpu0->cpu0_L1D PREFETCH     ACCESS:          0 HIT:          0 MISS:          0 MSHR_MERGE:          0
cpu0->cpu0_L1D WRITE        ACCESS:   36443157 HIT:   36407645 MISS:      35512 MSHR_MERGE:      28937
cpu0->cpu0_L1D TRANSLATION  ACCESS:     189840 HIT:      50286 MISS:     139554 MSHR_MERGE:        144
cpu0->cpu0_L1D PREFETCH REQUESTED:          0 ISSUED:          0 USEFUL:          0 USELESS:          0
cpu0->cpu0_L1D AVERAGE MISS LATENCY: 132 cycles
cpu0->cpu0_ITLB TOTAL        ACCESS:    1227334 HIT:    1227316 MISS:         18 MSHR_MERGE:          8
cpu0->cpu0_ITLB LOAD         ACCESS:    1227334 HIT:    1227316 MISS:         18 MSHR_MERGE:          8
cpu0->cpu0_ITLB RFO          ACCESS:          0 HIT:          0 MISS:          0 MSHR_MERGE:          0
cpu0->cpu0_ITLB PREFETCH     ACCESS:          0 HIT:          0 MISS:          0 MSHR_MERGE:          0
cpu0->cpu0_ITLB WRITE        ACCESS:          0 HIT:          0 MISS:          0 MSHR_MERGE:          0
cpu0->cpu0_ITLB TRANSLATION  ACCESS:          0 HIT:          0 MISS:          0 MSHR_MERGE:          0
cpu0->cpu0_ITLB PREFETCH REQUESTED:          0 ISSUED:          0 USEFUL:          0 USELESS:          0
cpu0->cpu0_ITLB AVERAGE MISS LATENCY: 947.6 cycles
cpu0->cpu0_DTLB TOTAL        ACCESS:  111301544 HIT:  110790272 MISS:     511272 MSHR_MERGE:     245660
cpu0->cpu0_DTLB LOAD         ACCESS:  111301544 HIT:  110790272 MISS:     511272 MSHR_MERGE:     245660
cpu0->cpu0_DTLB RFO          ACCESS:          0 HIT:          0 MISS:          0 MSHR_MERGE:          0
cpu0->cpu0_DTLB PREFETCH     ACCESS:          0 HIT:          0 MISS:          0 MSHR_MERGE:          0
cpu0->cpu0_DTLB WRITE        ACCESS:          0 HIT:          0 MISS:          0 MSHR_MERGE:          0
cpu0->cpu0_DTLB TRANSLATION  ACCESS:          0 HIT:          0 MISS:          0 MSHR_MERGE:          0
cpu0->cpu0_DTLB PREFETCH REQUESTED:          0 ISSUED:          0 USEFUL:          0 USELESS:          0
cpu0->cpu0_DTLB AVERAGE MISS LATENCY: 138.4 cycles
cpu0->LLC TOTAL        ACCESS:    3439596 HIT:      31584 MISS:    3408012 MSHR_MERGE:          0
cpu0->LLC LOAD         ACCESS:    3259200 HIT:       6620 MISS:    3252580 MSHR_MERGE:          0
cpu0->LLC RFO          ACCESS:       5300 HIT:         16 MISS:       5284 MSHR_MERGE:          0
cpu0->LLC PREFETCH     ACCESS:          0 HIT:          0 MISS:          0 MSHR_MERGE:          0
cpu0->LLC WRITE        ACCESS:      42487 HIT:      24054 MISS:      18433 MSHR_MERGE:          0
cpu0->LLC TRANSLATION  ACCESS:     132609 HIT:        894 MISS:     131715 MSHR_MERGE:          0
cpu0->LLC PREFETCH REQUESTED:          0 ISSUED:          0 USEFUL:          0 USELESS:          0
cpu0->LLC AVERAGE MISS LATENCY: 661.9 cycles
cpu1->LLC TOTAL        ACCESS:     700978 HIT:     146239 MISS:     554739 MSHR_MERGE:          0
cpu1->LLC LOAD         ACCESS:      63211 HIT:          0 MISS:      63211 MSHR_MERGE:          0
cpu1->LLC RFO          ACCESS:     314998 HIT:          0 MISS:     314998 MSHR_MERGE:          0
cpu1->LLC PREFETCH     ACCESS:          0 HIT:          0 MISS:          0 MSHR_MERGE:          0
cpu1->LLC WRITE        ACCESS:     315477 HIT:     146239 MISS:     169238 MSHR_MERGE:          0
cpu1->LLC TRANSLATION  ACCESS:       7292 HIT:          0 MISS:       7292 MSHR_MERGE:          0
cpu1->LLC PREFETCH REQUESTED:          0 ISSUED:          0 USEFUL:          0 USELESS:          0
cpu1->LLC AVERAGE MISS LATENCY: 4067 cycles
cpu2->LLC TOTAL        ACCESS:    6084561 HIT:    2121718 MISS:    3962843 MSHR_MERGE:          0
cpu2->LLC LOAD         ACCESS:    4979718 HIT:    1336907 MISS:    3642811 MSHR_MERGE:          0
cpu2->LLC RFO          ACCESS:     392681 HIT:     316430 MISS:      76251 MSHR_MERGE:          0
cpu2->LLC PREFETCH     ACCESS:          0 HIT:          0 MISS:          0 MSHR_MERGE:          0
cpu2->LLC WRITE        ACCESS:     636031 HIT:     460335 MISS:     175696 MSHR_MERGE:          0
cpu2->LLC TRANSLATION  ACCESS:      76131 HIT:       8046 MISS:      68085 MSHR_MERGE:          0
cpu2->LLC PREFETCH REQUESTED:          0 ISSUED:          0 USEFUL:          0 USELESS:          0
cpu2->LLC AVERAGE MISS LATENCY: 569.3 cycles
cpu3->LLC TOTAL        ACCESS:    5983374 HIT:    3516558 MISS:    2466816 MSHR_MERGE:          0
cpu3->LLC LOAD         ACCESS:    2784008 HIT:    2193672 MISS:     590336 MSHR_MERGE:          0
cpu3->LLC RFO          ACCESS:    1183286 HIT:      13761 MISS:    1169525 MSHR_MERGE:          0
cpu3->LLC PREFETCH     ACCESS:          0 HIT:          0 MISS:          0 MSHR_MERGE:          0
cpu3->LLC WRITE        ACCESS:    1452493 HIT:    1109084 MISS:     343409 MSHR_MERGE:          0
cpu3->LLC TRANSLATION  ACCESS:     563587 HIT:     200041 MISS:     363546 MSHR_MERGE:          0
cpu3->LLC PREFETCH REQUESTED:          0 ISSUED:          0 USEFUL:          0 USELESS:          0
cpu3->LLC AVERAGE MISS LATENCY: 914.5 cycles

DRAM Statistics

Channel 0 RQ ROW_BUFFER_HIT:      96577
  ROW_BUFFER_MISS:    9581525
  AVG DBUS CONGESTED CYCLE: 7.7
Channel 0 WQ ROW_BUFFER_HIT:     575909
  ROW_BUFFER_MISS:    1507657
  FULL:          0
Channel 0 REFRESHES ISSUED:      86217
