[VMEM] WARNING: physical memory size is smaller than virtual memory size.

*** ChampSim Multicore Out-of-Order Simulator ***
Warmup Instructions: 1000000
Simulation Instructions: 20000000
Number of CPUs: 2
Page size: 4096

Off-chip DRAM Size: 16 GiB Channels: 1 Width: 64-bit Data Rate: 3205 MT/s
Warmup finished CPU 1 instructions: 1000002 cycles: 263853 cumulative IPC: 3.79 (Simulation time: 00 hr 00 min 06 sec)
Warmup finished CPU 0 instructions: 1000003 cycles: 395383 cumulative IPC: 2.529 (Simulation time: 00 hr 00 min 10 sec)
Warmup complete CPU 1 instructions: 1524584 cycles: 395383 cumulative IPC: 3.856 (Simulation time: 00 hr 00 min 10 sec)
Warmup complete CPU 0 instructions: 1000003 cycles: 395383 cumulative IPC: 2.529 (Simulation time: 00 hr 00 min 10 sec)
Heartbeat CPU 1 instructions: 10000004 cycles: 3801507 heartbeat IPC: 2.631 cumulative IPC: 2.488 (Simulation time: 00 hr 00 min 58 sec)
[UCP partition] 15,1
Heartbeat CPU 1 instructions: 20000007 cycles: 7825682 heartbeat IPC: 2.485 cumulative IPC: 2.486 (Simulation time: 00 hr 01 min 55 sec)
Simulation finished CPU 1 instructions: 20000001 cycles: 8054195 cumulative IPC: 2.483 (Simulation time: 00 hr 02 min 04 sec)
[UCP partition] 15,1
Heartbeat CPU 1 instructions: 30000010 cycles: 11768754 heartbeat IPC: 2.536 cumulative IPC: 2.504 (Simulation time: 00 hr 02 min 52 sec)
[UCP partition] 15,1
Heartbeat CPU 1 instructions: 40000011 cycles: 15659332 heartbeat IPC: 2.57 cumulative IPC: 2.521 (Simulation time: 00 hr 03 min 47 sec)
Heartbeat CPU 1 instructions: 50000012 cycles: 19582140 heartbeat IPC: 2.549 cumulative IPC: 2.527 (Simulation time: 00 hr 04 min 43 sec)
[UCP partition] 15,1
Heartbeat CPU 1 instructions: 60000013 cycles: 23486397 heartbeat IPC: 2.561 cumulative IPC: 2.532 (Simulation time: 00 hr 05 min 38 sec)
[UCP partition] 15,1
Heartbeat CPU 1 instructions: 70000014 cycles: 27396935 heartbeat IPC: 2.557 cumulative IPC: 2.536 (Simulation time: 00 hr 06 min 34 sec)
[UCP partition] 15,1
Heartbeat CPU 1 instructions: 80000014 cycles: 31306451 heartbeat IPC: 2.558 cumulative IPC: 2.539 (Simulation time: 00 hr 07 min 30 sec)
Heartbeat CPU 0 instructions: 10000000 cycles: 33456772 heartbeat IPC: 0.2989 cumulative IPC: 0.2722 (Simulation time: 00 hr 08 min 01 sec)
[UCP partition] 15,1
Heartbeat CPU 1 instructions: 90000016 cycles: 35227226 heartbeat IPC: 2.551 cumulative IPC: 2.54 (Simulation time: 00 hr 08 min 27 sec)
Heartbeat CPU 1 instructions: 100000019 cycles: 39111225 heartbeat IPC: 2.575 cumulative IPC: 2.544 (Simulation time: 00 hr 09 min 22 sec)
[UCP partition] 15,1
Heartbeat CPU 1 instructions: 110000022 cycles: 42965205 heartbeat IPC: 2.595 cumulative IPC: 2.548 (Simulation time: 00 hr 10 min 18 sec)
[UCP partition] 15,1
Heartbeat CPU 1 instructions: 120000022 cycles: 46826407 heartbeat IPC: 2.59 cumulative IPC: 2.552 (Simulation time: 00 hr 11 min 13 sec)
[UCP partition] 15,1
Heartbeat CPU 1 instructions: 130000022 cycles: 50707057 heartbeat IPC: 2.577 cumulative IPC: 2.554 (Simulation time: 00 hr 12 min 09 sec)
[UCP partition] 15,1
[UCP partition] 15,1
Heartbeat CPU 1 instructions: 140000025 cycles: 61076122 heartbeat IPC: 0.9644 cumulative IPC: 2.282 (Simulation time: 00 hr 14 min 07 sec)
[UCP partition] 15,1
Heartbeat CPU 1 instructions: 150000026 cycles: 67330301 heartbeat IPC: 1.599 cumulative IPC: 2.218 (Simulation time: 00 hr 15 min 28 sec)
Heartbeat CPU 0 instructions: 20000002 cycles: 69994423 heartbeat IPC: 0.2737 cumulative IPC: 0.273 (Simulation time: 00 hr 16 min 06 sec)
[UCP partition] 15,1
Heartbeat CPU 1 instructions: 160000027 cycles: 71578336 heartbeat IPC: 2.354 cumulative IPC: 2.226 (Simulation time: 00 hr 16 min 29 sec)
Simulation finished CPU 0 instructions: 20000002 cycles: 72577938 cumulative IPC: 0.2756 (Simulation time: 00 hr 16 min 49 sec)
Simulation complete CPU 1 instructions: 161577146 cycles: 72577938 cumulative IPC: 2.226 (Simulation time: 00 hr 16 min 49 sec)
Simulation complete CPU 0 instructions: 20000002 cycles: 72577938 cumulative IPC: 0.2756 (Simulation time: 00 hr 16 min 49 sec)

ChampSim completed all CPUs

=== Simulation ===
CPU 0 runs /home/faculty/p/pgratz/dpc3_traces/605.mcf_s-665B.champsimtrace.xz
CPU 1 runs /home/faculty/p/pgratz/dpc3_traces/625.x264_s-18B.champsimtrace.xz

Total Simulation Statistics (not including warmup)

CPU 1 cumulative IPC: 2.226 instructions: 161577146 cycles: 72577938
CPU 1 Branch Prediction Accuracy: 87.86% MPKI: 5.733 Average ROB Occupancy at Mispredict: 68.46
Branch type MPKI
BRANCH_DIRECT_JUMP: 0.001157
BRANCH_INDIRECT: 0.0008541
BRANCH_CONDITIONAL: 5.638
BRANCH_DIRECT_CALL: 0.001584
BRANCH_INDIRECT_CALL: 0.01665
BRANCH_RETURN: 0.07479


CPU 0 cumulative IPC: 0.2756 instructions: 20000002 cycles: 72577938
CPU 0 Branch Prediction Accuracy: 86.76% MPKI: 33.02 Average ROB Occupancy at Mispredict: 14.21
Branch type MPKI
BRANCH_DIRECT_JUMP: 0.2257
BRANCH_INDIRECT: 0
BRANCH_CONDITIONAL: 32.76
BRANCH_DIRECT_CALL: 0
BRANCH_INDIRECT_CALL: 0.0421
BRANCH_RETURN: 5e-05

cpu1->cpu1_STLB TOTAL        ACCESS:      62604 HIT:      60880 MISS:       1724 MSHR_MERGE:          0
cpu1->cpu1_STLB LOAD         ACCESS:      62604 HIT:      60880 MISS:       1724 MSHR_MERGE:          0
cpu1->cpu1_STLB RFO          ACCESS:          0 HIT:          0 MISS:          0 MSHR_MERGE:          0
cpu1->cpu1_STLB PREFETCH     ACCESS:          0 HIT:          0 MISS:          0 MSHR_MERGE:          0
cpu1->cpu1_STLB WRITE        ACCESS:          0 HIT:          0 MISS:          0 MSHR_MERGE:          0
cpu1->cpu1_STLB TRANSLATION  ACCESS:          0 HIT:          0 MISS:          0 MSHR_MERGE:          0
cpu1->cpu1_STLB PREFETCH REQUESTED:          0 ISSUED:          0 USEFUL:          0 USELESS:          0
cpu1->cpu1_STLB AVERAGE MISS LATENCY: 816.7 cycles
cpu1->cpu1_L2C TOTAL        ACCESS:     262069 HIT:     174738 MISS:      87331 MSHR_MERGE:          0
cpu1->cpu1_L2C LOAD         ACCESS:     220811 HIT:     148863 MISS:      71948 MSHR_MERGE:          0
cpu1->cpu1_L2C RFO          ACCESS:      15786 HIT:       3481 MISS:      12305 MSHR_MERGE:          0
cpu1->cpu1_L2C PREFETCH     ACCESS:          0 HIT:          0 MISS:          0 MSHR_MERGE:          0
cpu1->cpu1_L2C WRITE        ACCESS:      22436 HIT:      22322 MISS:        114 MSHR_MERGE:          0
cpu1->cpu1_L2C TRANSLATION  ACCESS:       3036 HIT:         72 MISS:       2964 MSHR_MERGE:          0
cpu1->cpu1_L2C PREFETCH REQUESTED:          0 ISSUED:          0 USEFUL:          0 USELESS:          0
cpu1->cpu1_L2C AVERAGE MISS LATENCY: 208.2 cycles
cpu1->cpu1_L1I TOTAL        ACCESS:   14111020 HIT:   13898076 MISS:     212944 MSHR_MERGE:      82869
cpu1->cpu1_L1I LOAD         ACCESS:   14111020 HIT:   13898076 MISS:     212944 MSHR_MERGE:      82869
cpu1->cpu1_L1I RFO          ACCESS:          0 HIT:          0 MISS:          0 MSHR_MERGE:          0
cpu1->cpu1_L1I PREFETCH     ACCESS:          0 HIT:          0 MISS:          0 MSHR_MERGE:          0
cpu1->cpu1_L1I WRITE        ACCESS:          0 HIT:          0 MISS:          0 MSHR_MERGE:          0
cpu1->cpu1_L1I TRANSLATION  ACCESS:          0 HIT:          0 MISS:          0 MSHR_MERGE:          0
cpu1->cpu1_L1I PREFETCH REQUESTED:          0 ISSUED:          0 USEFUL:          0 USELESS:          0
cpu1->cpu1_L1I AVERAGE MISS LATENCY: 10.3 cycles
cpu1->cpu1_L1D TOTAL        ACCESS:   32935066 HIT:   32676867 MISS:     258199 MSHR_MERGE:     148641
cpu1->cpu1_L1D LOAD         ACCESS:   22278100 HIT:   22102501 MISS:     175599 MSHR_MERGE:      84863
cpu1->cpu1_L1D RFO          ACCESS:          0 HIT:          0 MISS:          0 MSHR_MERGE:          0
cpu1->cpu1_L1D PREFETCH     ACCESS:          0 HIT:          0 MISS:          0 MSHR_MERGE:          0
cpu1->cpu1_L1D WRITE        ACCESS:   10653492 HIT:   10574015 MISS:      79477 MSHR_MERGE:      63691
cpu1->cpu1_L1D TRANSLATION  ACCESS:       3474 HIT:        351 MISS:       3123 MSHR_MERGE:         87
cpu1->cpu1_L1D PREFETCH REQUESTED:          0 ISSUED:          0 USEFUL:          0 USELESS:          0
cpu1->cpu1_L1D AVERAGE MISS LATENCY: 171 cycles
cpu1->cpu1_ITLB TOTAL        ACCESS:   11488840 HIT:   11487497 MISS:       1343 MSHR_MERGE:        881
cpu1->cpu1_ITLB LOAD         ACCESS:   11488840 HIT:   11487497 MISS:       1343 MSHR_MERGE:        881
cpu1->cpu1_ITLB RFO          ACCESS:          0 HIT:          0 MISS:          0 MSHR_MERGE:          0
cpu1->cpu1_ITLB PREFETCH     ACCESS:          0 HIT:          0 MISS:          0 MSHR_MERGE:          0
cpu1->cpu1_ITLB WRITE        ACCESS:          0 HIT:          0 MISS:          0 MSHR_MERGE:          0
cpu1->cpu1_ITLB TRANSLATION  ACCESS:          0 HIT:          0 MISS:          0 MSHR_MERGE:          0
cpu1->cpu1_ITLB PREFETCH REQUESTED:          0 ISSUED:          0 USEFUL:          0 USELESS:          0
cpu1->cpu1_ITLB AVERAGE MISS LATENCY: 130.5 cycles
cpu1->cpu1_DTLB TOTAL        ACCESS:   31302266 HIT:   31181936 MISS:     120330 MSHR_MERGE:      58188
cpu1->cpu1_DTLB LOAD         ACCESS:   31302266 HIT:   31181936 MISS:     120330 MSHR_MERGE:      58188
cpu1->cpu1_DTLB RFO          ACCESS:          0 HIT:          0 MISS:          0 MSHR_MERGE:          0
cpu1->cpu1_DTLB PREFETCH     ACCESS:          0 HIT:          0 MISS:          0 MSHR_MERGE:          0
cpu1->cpu1_DTLB WRITE        ACCESS:          0 HIT:          0 MISS:          0 MSHR_MERGE:          0
cpu1->cpu1_DTLB TRANSLATION  ACCESS:          0 HIT:          0 MISS:          0 MSHR_MERGE:          0
cpu1->cpu1_DTLB PREFETCH REQUESTED:          0 ISSUED:          0 USEFUL:          0 USELESS:          0
cpu1->cpu1_DTLB AVERAGE MISS LATENCY: 26.75 cycles
cpu0->cpu0_STLB TOTAL        ACCESS:     360017 HIT:     354684 MISS:       5333 MSHR_MERGE:          0
cpu0->cpu0_STLB LOAD         ACCESS:     360017 HIT:     354684 MISS:       5333 MSHR_MERGE:          0
cpu0->cpu0_STLB RFO          ACCESS:          0 HIT:          0 MISS:          0 MSHR_MERGE:          0
cpu0->cpu0_STLB PREFETCH     ACCESS:          0 HIT:          0 MISS:          0 MSHR_MERGE:          0
cpu0->cpu0_STLB WRITE        ACCESS:          0 HIT:          0 MISS:          0 MSHR_MERGE:          0
cpu0->cpu0_STLB TRANSLATION  ACCESS:          0 HIT:          0 MISS:          0 MSHR_MERGE:          0
cpu0->cpu0_STLB PREFETCH REQUESTED:          0 ISSUED:          0 USEFUL:          0 USELESS:          0
cpu0->cpu0_STLB AVERAGE MISS LATENCY: 455.5 cycles
cpu0->cpu0_L2C TOTAL        ACCESS:     900458 HIT:     361696 MISS:     538762 MSHR_MERGE:          0
cpu0->cpu0_L2C LOAD         ACCESS:     712007 HIT:     214931 MISS:     497076 MSHR_MERGE:          0
cpu0->cpu0_L2C RFO          ACCESS:      74696 HIT:      40948 MISS:      33748 MSHR_MERGE:          0
cpu0->cpu0_L2C PREFETCH     ACCESS:          0 HIT:          0 MISS:          0 MSHR_MERGE:          0
cpu0->cpu0_L2C WRITE        ACCESS:     105771 HIT:     105695 MISS:         76 MSHR_MERGE:          0
cpu0->cpu0_L2C TRANSLATION  ACCESS:       7984 HIT:        122 MISS:       7862 MSHR_MERGE:          0
cpu0->cpu0_L2C PREFETCH REQUESTED:          0 ISSUED:          0 USEFUL:          0 USELESS:          0
cpu0->cpu0_L2C AVERAGE MISS LATENCY: 105.2 cycles
cpu0->cpu0_L1I TOTAL        ACCESS:      50855 HIT:      50855 MISS:          0 MSHR_MERGE:          0
cpu0->cpu0_L1I LOAD         ACCESS:      50855 HIT:      50855 MISS:          0 MSHR_MERGE:          0
cpu0->cpu0_L1I RFO          ACCESS:          0 HIT:          0 MISS:          0 MSHR_MERGE:          0
cpu0->cpu0_L1I PREFETCH     ACCESS:          0 HIT:          0 MISS:          0 MSHR_MERGE:          0
cpu0->cpu0_L1I WRITE        ACCESS:          0 HIT:          0 MISS:          0 MSHR_MERGE:          0
cpu0->cpu0_L1I TRANSLATION  ACCESS:          0 HIT:          0 MISS:          0 MSHR_MERGE:          0
cpu0->cpu0_L1I PREFETCH REQUESTED:          0 ISSUED:          0 USEFUL:          0 USELESS:          0
cpu0->cpu0_L1I AVERAGE MISS LATENCY: - cycles
cpu0->cpu0_L1D TOTAL        ACCESS:    7967634 HIT:    6882424 MISS:    1085210 MSHR_MERGE:     290521
cpu0->cpu0_L1D LOAD         ACCESS:    5663403 HIT:    4787954 MISS:     875449 MSHR_MERGE:     163440
cpu0->cpu0_L1D RFO          ACCESS:          0 HIT:          0 MISS:          0 MSHR_MERGE:          0
cpu0->cpu0_L1D PREFETCH     ACCESS:          0 HIT:          0 MISS:          0 MSHR_MERGE:          0
cpu0->cpu0_L1D WRITE        ACCESS:    2293523 HIT:    2091746 MISS:     201777 MSHR_MERGE:     127081
cpu0->cpu0_L1D TRANSLATION  ACCESS:      10708 HIT:       2724 MISS:       7984 MSHR_MERGE:          0
cpu0->cpu0_L1D PREFETCH REQUESTED:          0 ISSUED:          0 USEFUL:          0 USELESS:          0
cpu0->cpu0_L1D AVERAGE MISS LATENCY: 80.08 cycles
cpu0->cpu0_ITLB TOTAL        ACCESS:      42899 HIT:      42899 MISS:          0 MSHR_MERGE:          0
cpu0->cpu0_ITLB LOAD         ACCESS:      42899 HIT:      42899 MISS:          0 MSHR_MERGE:          0
cpu0->cpu0_ITLB RFO          ACCESS:          0 HIT:          0 MISS:          0 MSHR_MERGE:          0
cpu0->cpu0_ITLB PREFETCH     ACCESS:          0 HIT:          0 MISS:          0 MSHR_MERGE:          0
cpu0->cpu0_ITLB WRITE        ACCESS:          0 HIT:          0 MISS:          0 MSHR_MERGE:          0
cpu0->cpu0_ITLB TRANSLATION  ACCESS:          0 HIT:          0 MISS:          0 MSHR_MERGE:          0
cpu0->cpu0_ITLB PREFETCH REQUESTED:          0 ISSUED:          0 USEFUL:          0 USELESS:          0
cpu0->cpu0_ITLB AVERAGE MISS LATENCY: - cycles
cpu0->cpu0_DTLB TOTAL        ACCESS:    7564547 HIT:    7089205 MISS:     475342 MSHR_MERGE:     115325
cpu0->cpu0_DTLB LOAD         ACCESS:    7564547 HIT:    7089205 MISS:     475342 MSHR_MERGE:     115325
cpu0->cpu0_DTLB RFO          ACCESS:          0 HIT:          0 MISS:          0 MSHR_MERGE:          0
cpu0->cpu0_DTLB PREFETCH     ACCESS:          0 HIT:          0 MISS:          0 MSHR_MERGE:          0
cpu0->cpu0_DTLB WRITE        ACCESS:          0 HIT:          0 MISS:          0 MSHR_MERGE:          0
cpu0->cpu0_DTLB TRANSLATION  ACCESS:          0 HIT:          0 MISS:          0 MSHR_MERGE:          0
cpu0->cpu0_DTLB PREFETCH REQUESTED:          0 ISSUED:          0 USEFUL:          0 USELESS:          0
cpu0->cpu0_DTLB AVERAGE MISS LATENCY: 11.76 cycles
cpu0->LLC TOTAL        ACCESS:     593636 HIT:     327010 MISS:     266626 MSHR_MERGE:          0
cpu0->LLC LOAD         ACCESS:     497076 HIT:     237763 MISS:     259313 MSHR_MERGE:          0
cpu0->LLC RFO          ACCESS:      33748 HIT:      33141 MISS:        607 MSHR_MERGE:          0
cpu0->LLC PREFETCH     ACCESS:          0 HIT:          0 MISS:          0 MSHR_MERGE:          0
cpu0->LLC WRITE        ACCESS:      54950 HIT:      53638 MISS:       1312 MSHR_MERGE:          0
cpu0->LLC TRANSLATION  ACCESS:       7862 HIT:       2468 MISS:       5394 MSHR_MERGE:          0
cpu0->LLC PREFETCH REQUESTED:          0 ISSUED:          0 USEFUL:          0 USELESS:          0
cpu0->LLC AVERAGE MISS LATENCY: 243.9 cycles
cpu1->LLC TOTAL        ACCESS:      96851 HIT:        414 MISS:      96437 MSHR_MERGE:          0
cpu1->LLC LOAD         ACCESS:      71948 HIT:        285 MISS:      71663 MSHR_MERGE:          0
cpu1->LLC RFO          ACCESS:      12305 HIT:         52 MISS:      12253 MSHR_MERGE:          0
cpu1->LLC PREFETCH     ACCESS:          0 HIT:          0 MISS:          0 MSHR_MERGE:          0
cpu1->LLC WRITE        ACCESS:       9634 HIT:         77 MISS:       9557 MSHR_MERGE:          0
cpu1->LLC TRANSLATION  ACCESS:       2964 HIT:          0 MISS:       2964 MSHR_MERGE:          0
cpu1->LLC PREFETCH REQUESTED:          0 ISSUED:          0 USEFUL:          0 USELESS:          0
cpu1->LLC AVERAGE MISS LATENCY: 674.3 cycles

Region of Interest Statistics

CPU 1 cumulative IPC: 2.483 instructions: 20000001 cycles: 8054195
CPU 1 Branch Prediction Accuracy: 88.34% MPKI: 4.872 Average ROB Occupancy at Mispredict: 82.75
Branch type MPKI
BRANCH_DIRECT_JUMP: 0.00025
BRANCH_INDIRECT: 5e-05
BRANCH_CONDITIONAL: 4.744
BRANCH_DIRECT_CALL: 0.0001
BRANCH_INDIRECT_CALL: 0.01185
BRANCH_RETURN: 0.1152


CPU 0 cumulative IPC: 0.2756 instructions: 20000002 cycles: 72577938
CPU 0 Branch Prediction Accuracy: 86.76% MPKI: 33.02 Average ROB Occupancy at Mispredict: 14.21
Branch type MPKI
BRANCH_DIRECT_JUMP: 0.2257
BRANCH_INDIRECT: 0
BRANCH_CONDITIONAL: 32.76
BRANCH_DIRECT_CALL: 0
BRANCH_INDIRECT_CALL: 0.0421
BRANCH_RETURN: 5e-05

cpu1->cpu1_STLB TOTAL        ACCESS:      62604 HIT:      60880 MISS:       1724 MSHR_MERGE:          0
cpu1->cpu1_STLB LOAD         ACCESS:      62604 HIT:      60880 MISS:       1724 MSHR_MERGE:          0
cpu1->cpu1_STLB RFO          ACCESS:          0 HIT:          0 MISS:          0 MSHR_MERGE:          0
cpu1->cpu1_STLB PREFETCH     ACCESS:          0 HIT:          0 MISS:          0 MSHR_MERGE:          0
cpu1->cpu1_STLB WRITE        ACCESS:          0 HIT:          0 MISS:          0 MSHR_MERGE:          0
cpu1->cpu1_STLB TRANSLATION  ACCESS:          0 HIT:          0 MISS:          0 MSHR_MERGE:          0
cpu1->cpu1_STLB PREFETCH REQUESTED:          0 ISSUED:          0 USEFUL:          0 USELESS:          0
cpu1->cpu1_STLB AVERAGE MISS LATENCY: 816.7 cycles
cpu1->cpu1_L2C TOTAL        ACCESS:     262069 HIT:     174738 MISS:      87331 MSHR_MERGE:          0
cpu1->cpu1_L2C LOAD         ACCESS:     220811 HIT:     148863 MISS:      71948 MSHR_MERGE:          0
cpu1->cpu1_L2C RFO          ACCESS:      15786 HIT:       3481 MISS:      12305 MSHR_MERGE:          0
cpu1->cpu1_L2C PREFETCH     ACCESS:          0 HIT:          0 MISS:          0 MSHR_MERGE:          0
cpu1->cpu1_L2C WRITE        ACCESS:      22436 HIT:      22322 MISS:        114 MSHR_MERGE:          0
cpu1->cpu1_L2C TRANSLATION  ACCESS:       3036 HIT:         72 MISS:       2964 MSHR_MERGE:          0
cpu1->cpu1_L2C PREFETCH REQUESTED:          0 ISSUED:          0 USEFUL:          0 USELESS:          0
cpu1->cpu1_L2C AVERAGE MISS LATENCY: 208.2 cycles
cpu1->cpu1_L1I TOTAL        ACCESS:   14111020 HIT:   13898076 MISS:     212944 MSHR_MERGE:      82869
cpu1->cpu1_L1I LOAD         ACCESS:   14111020 HIT:   13898076 MISS:     212944 MSHR_MERGE:      82869
cpu1->cpu1_L1I RFO          ACCESS:          0 HIT:          0 MISS:          0 MSHR_MERGE:          0
cpu1->cpu1_L1I PREFETCH     ACCESS:          0 HIT:          0 MISS:          0 MSHR_MERGE:          0
cpu1->cpu1_L1I WRITE        ACCESS:          0 HIT:          0 MISS:          0 MSHR_MERGE:          0
cpu1->cpu1_L1I TRANSLATION  ACCESS:          0 HIT:          0 MISS:          0 MSHR_MERGE:          0
cpu1->cpu1_L1I PREFETCH REQUESTED:          0 ISSUED:          0 USEFUL:          0 USELESS:          0
cpu1->cpu1_L1I AVERAGE MISS LATENCY: 10.3 cycles
cpu1->cpu1_L1D TOTAL        ACCESS:   32935066 HIT:   32676867 MISS:     258199 MSHR_MERGE:     148641
cpu1->cpu1_L1D LOAD         ACCESS:   22278100 HIT:   22102501 MISS:     175599 MSHR_MERGE:      84863
cpu1->cpu1_L1D RFO          ACCESS:          0 HIT:          0 MISS:          0 MSHR_MERGE:          0
cpu1->cpu1_L1D PREFETCH     ACCESS:          0 HIT:          0 MISS:          0 MSHR_MERGE:          0
cpu1->cpu1_L1D WRITE        ACCESS:   10653492 HIT:   10574015 MISS:      79477 MSHR_MERGE:      63691
cpu1->cpu1_L1D TRANSLATION  ACCESS:       3474 HIT:        351 MISS:       3123 MSHR_MERGE:         87
cpu1->cpu1_L1D PREFETCH REQUESTED:          0 ISSUED:          0 USEFUL:          0 USELESS:          0
cpu1->cpu1_L1D AVERAGE MISS LATENCY: 171 cycles
cpu1->cpu1_ITLB TOTAL        ACCESS:   11488840 HIT:   11487497 MISS:       1343 MSHR_MERGE:        881
cpu1->cpu1_ITLB LOAD         ACCESS:   11488840 HIT:   11487497 MISS:       1343 MSHR_MERGE:        881
cpu1->cpu1_ITLB RFO          ACCESS:          0 HIT:          0 MISS:          0 MSHR_MERGE:          0
cpu1->cpu1_ITLB PREFETCH     ACCESS:          0 HIT:          0 MISS:          0 MSHR_MERGE:          0
cpu1->cpu1_ITLB WRITE        ACCESS:          0 HIT:          0 MISS:          0 MSHR_MERGE:          0
cpu1->cpu1_ITLB TRANSLATION  ACCESS:          0 HIT:          0 MISS:          0 MSHR_MERGE:          0
cpu1->cpu1_ITLB PREFETCH REQUESTED:          0 ISSUED:          0 USEFUL:          0 USELESS:          0
cpu1->cpu1_ITLB AVERAGE MISS LATENCY: 130.5 cycles
cpu1->cpu1_DTLB TOTAL        ACCESS:   31302266 HIT:   31181936 MISS:     120330 MSHR_MERGE:      58188
cpu1->cpu1_DTLB LOAD         ACCESS:   31302266 HIT:   31181936 MISS:     120330 MSHR_MERGE:      58188
cpu1->cpu1_DTLB RFO          ACCESS:          0 HIT:          0 MISS:          0 MSHR_MERGE:          0
cpu1->cpu1_DTLB PREFETCH     ACCESS:          0 HIT:          0 MISS:          0 MSHR_MERGE:          0
cpu1->cpu1_DTLB WRITE        ACCESS:          0 HIT:          0 MISS:          0 MSHR_MERGE:          0
cpu1->cpu1_DTLB TRANSLATION  ACCESS:          0 HIT:          0 MISS:          0 MSHR_MERGE:          0
cpu1->cpu1_DTLB PREFETCH REQUESTED:          0 ISSUED:          0 USEFUL:          0 USELESS:          0
cpu1->cpu1_DTLB AVERAGE MISS LATENCY: 26.75 cycles
cpu0->cpu0_STLB TOTAL        ACCESS:     360017 HIT:     354684 MISS:       5333 MSHR_MERGE:          0
cpu0->cpu0_STLB LOAD         ACCESS:     360017 HIT:     354684 MISS:       5333 MSHR_MERGE:          0
cpu0->cpu0_STLB RFO          ACCESS:          0 HIT:          0 MISS:          0 MSHR_MERGE:          0
cpu0->cpu0_STLB PREFETCH     ACCESS:          0 HIT:          0 MISS:          0 MSHR_MERGE:          0
cpu0->cpu0_STLB WRITE        ACCESS:          0 HIT:          0 MISS:          0 MSHR_MERGE:          0
cpu0->cpu0_STLB TRANSLATION  ACCESS:          0 HIT:          0 MISS:          0 MSHR_MERGE:          0
cpu0->cpu0_STLB PREFETCH REQUESTED:          0 ISSUED:          0 USEFUL:          0 USELESS:          0
cpu0->cpu0_STLB AVERAGE MISS LATENCY: 455.5 cycles
cpu0->cpu0_L2C TOTAL        ACCESS:     900458 HIT:     361696 MISS:     538762 MSHR_MERGE:          0
cpu0->cpu0_L2C LOAD         ACCESS:     712007 HIT:     214931 MISS:     497076 MSHR_MERGE:          0
cpu0->cpu0_L2C RFO          ACCESS:      74696 HIT:      40948 MISS:      33748 MSHR_MERGE:          0
cpu0->cpu0_L2C PREFETCH     ACCESS:          0 HIT:          0 MISS:          0 MSHR_MERGE:          0
cpu0->cpu0_L2C WRITE        ACCESS:     105771 HIT:     105695 MISS:         76 MSHR_MERGE:          0
cpu0->cpu0_L2C TRANSLATION  ACCESS:       7984 HIT:        122 MISS:       7862 MSHR_MERGE:          0
cpu0->cpu0_L2C PREFETCH REQUESTED:          0 ISSUED:          0 USEFUL:          0 USELESS:          0
cpu0->cpu0_L2C AVERAGE MISS LATENCY: 105.2 cycles
cpu0->cpu0_L1I TOTAL        ACCESS:      50855 HIT:      50855 MISS:          0 MSHR_MERGE:          0
cpu0->cpu0_L1I LOAD         ACCESS:      50855 HIT:      50855 MISS:          0 MSHR_MERGE:          0
cpu0->cpu0_L1I RFO          ACCESS:          0 HIT:          0 MISS:          0 MSHR_MERGE:          0
cpu0->cpu0_L1I PREFETCH     ACCESS:          0 HIT:          0 MISS:          0 MSHR_MERGE:          0
cpu0->cpu0_L1I WRITE        ACCESS:          0 HIT:          0 MISS:          0 MSHR_MERGE:          0
cpu0->cpu0_L1I TRANSLATION  ACCESS:          0 HIT:          0 MISS:          0 MSHR_MERGE:          0
cpu0->cpu0_L1I PREFETCH REQUESTED:          0 ISSUED:          0 USEFUL:          0 USELESS:          0
cpu0->cpu0_L1I AVERAGE MISS LATENCY: - cycles
cpu0->cpu0_L1D TOTAL        ACCESS:    7967634 HIT:    6882424 MISS:    1085210 MSHR_MERGE:     290521
cpu0->cpu0_L1D LOAD         ACCESS:    5663403 HIT:    4787954 MISS:     875449 MSHR_MERGE:     163440
cpu0->cpu0_L1D RFO          ACCESS:          0 HIT:          0 MISS:          0 MSHR_MERGE:          0
cpu0->cpu0_L1D PREFETCH     ACCESS:          0 HIT:          0 MISS:          0 MSHR_MERGE:          0
cpu0->cpu0_L1D WRITE        ACCESS:    2293523 HIT:    2091746 MISS:     201777 MSHR_MERGE:     127081
cpu0->cpu0_L1D TRANSLATION  ACCESS:      10708 HIT:       2724 MISS:       7984 MSHR_MERGE:          0
cpu0->cpu0_L1D PREFETCH REQUESTED:          0 ISSUED:          0 USEFUL:          0 USELESS:          0
cpu0->cpu0_L1D AVERAGE MISS LATENCY: 80.08 cycles
cpu0->cpu0_ITLB TOTAL        ACCESS:      42899 HIT:      42899 MISS:          0 MSHR_MERGE:          0
cpu0->cpu0_ITLB LOAD         ACCESS:      42899 HIT:      42899 MISS:          0 MSHR_MERGE:          0
cpu0->cpu0_ITLB RFO          ACCESS:          0 HIT:          0 MISS:          0 MSHR_MERGE:          0
cpu0->cpu0_ITLB PREFETCH     ACCESS:          0 HIT:          0 MISS:          0 MSHR_MERGE:          0
cpu0->cpu0_ITLB WRITE        ACCESS:          0 HIT:          0 MISS:          0 MSHR_MERGE:          0
cpu0->cpu0_ITLB TRANSLATION  ACCESS:          0 HIT:          0 MISS:          0 MSHR_MERGE:          0
cpu0->cpu0_ITLB PREFETCH REQUESTED:          0 ISSUED:          0 USEFUL:          0 USELESS:          0
cpu0->cpu0_ITLB AVERAGE MISS LATENCY: - cycles
cpu0->cpu0_DTLB TOTAL        ACCESS:    7564547 HIT:    7089205 MISS:     475342 MSHR_MERGE:     115325
cpu0->cpu0_DTLB LOAD         ACCESS:    7564547 HIT:    7089205 MISS:     475342 MSHR_MERGE:     115325
cpu0->cpu0_DTLB RFO          ACCESS:          0 HIT:          0 MISS:          0 MSHR_MERGE:          0
cpu0->cpu0_DTLB PREFETCH     ACCESS:          0 HIT:          0 MISS:          0 MSHR_MERGE:          0
cpu0->cpu0_DTLB WRITE        ACCESS:          0 HIT:          0 MISS:          0 MSHR_MERGE:          0
cpu0->cpu0_DTLB TRANSLATION  ACCESS:          0 HIT:          0 MISS:          0 MSHR_MERGE:          0
cpu0->cpu0_DTLB PREFETCH REQUESTED:          0 ISSUED:          0 USEFUL:          0 USELESS:          0
cpu0->cpu0_DTLB AVERAGE MISS LATENCY: 11.76 cycles
cpu0->LLC TOTAL        ACCESS:     593636 HIT:     327010 MISS:     266626 MSHR_MERGE:          0
cpu0->LLC LOAD         ACCESS:     497076 HIT:     237763 MISS:     259313 MSHR_MERGE:          0
cpu0->LLC RFO          ACCESS:      33748 HIT:      33141 MISS:        607 MSHR_MERGE:          0
cpu0->LLC PREFETCH     ACCESS:          0 HIT:          0 MISS:          0 MSHR_MERGE:          0
cpu0->LLC WRITE        ACCESS:      54950 HIT:      53638 MISS:       1312 MSHR_MERGE:          0
cpu0->LLC TRANSLATION  ACCESS:       7862 HIT:       2468 MISS:       5394 MSHR_MERGE:          0
cpu0->LLC PREFETCH REQUESTED:          0 ISSUED:          0 USEFUL:          0 USELESS:          0
cpu0->LLC AVERAGE MISS LATENCY: 243.9 cycles
cpu1->LLC TOTAL        ACCESS:      96851 HIT:        414 MISS:      96437 MSHR_MERGE:          0
cpu1->LLC LOAD         ACCESS:      71948 HIT:        285 MISS:      71663 MSHR_MERGE:          0
cpu1->LLC RFO          ACCESS:      12305 HIT:         52 MISS:      12253 MSHR_MERGE:          0
cpu1->LLC PREFETCH     ACCESS:          0 HIT:          0 MISS:          0 MSHR_MERGE:          0
cpu1->LLC WRITE        ACCESS:       9634 HIT:         77 MISS:       9557 MSHR_MERGE:          0
cpu1->LLC TRANSLATION  ACCESS:       2964 HIT:          0 MISS:       2964 MSHR_MERGE:          0
cpu1->LLC PREFETCH REQUESTED:          0 ISSUED:          0 USEFUL:          0 USELESS:          0
cpu1->LLC AVERAGE MISS LATENCY: 674.3 cycles

DRAM Statistics

Channel 0 RQ ROW_BUFFER_HIT:      10562
  ROW_BUFFER_MISS:     341608
  AVG DBUS CONGESTED CYCLE: 20.75
Channel 0 WQ ROW_BUFFER_HIT:       3697
  ROW_BUFFER_MISS:       8744
  FULL:          0
Channel 0 REFRESHES ISSUED:       6049
