[VMEM] WARNING: physical memory size is smaller than virtual memory size.

*** ChampSim Multicore Out-of-Order Simulator ***
Warmup Instructions: 50000000
Simulation Instructions: 250000000
Number of CPUs: 4
Page size: 4096

Off-chip DRAM Size: 16 GiB Channels: 1 Width: 64-bit Data Rate: 3205 MT/s
[UCP_DEBUG] repartition=1 partition=2,3,3,8
[UCP_DEBUG] repartition=2 partition=2,4,3,7
[UCP_DEBUG] repartition=3 partition=1,5,4,6
[UCP_DEBUG] repartition=4 partition=2,6,3,5
[UCP_DEBUG] repartition=5 partition=1,6,4,5
[UCP_DEBUG] repartition=6 partition=2,6,4,4
[UCP_DEBUG] repartition=7 partition=2,6,4,4
[UCP_DEBUG] repartition=8 partition=3,7,3,3
[UCP_DEBUG] repartition=9 partition=1,8,3,4
[UCP_DEBUG] repartition=10 partition=1,8,3,4
[UCP_DEBUG] repartition=11 partition=1,9,3,3
[UCP_DEBUG] repartition=12 partition=1,9,3,3
[UCP_DEBUG] repartition=13 partition=1,8,3,4
[UCP_DEBUG] repartition=14 partition=1,10,2,3
[UCP_DEBUG] repartition=15 partition=1,11,3,1
[UCP_DEBUG] repartition=16 partition=1,11,3,1
[UCP_DEBUG] repartition=17 partition=1,11,3,1
[UCP_DEBUG] repartition=18 partition=1,11,3,1
[UCP_DEBUG] repartition=19 partition=1,10,4,1
[UCP_DEBUG] repartition=20 partition=1,10,4,1
Heartbeat CPU 0 instructions: 10000000 cycles: 2508126 heartbeat IPC: 3.987 cumulative IPC: 3.987 (Simulation time: 00 hr 02 min 09 sec)
Heartbeat CPU 3 instructions: 10000003 cycles: 2605145 heartbeat IPC: 3.839 cumulative IPC: 3.839 (Simulation time: 00 hr 02 min 14 sec)
Heartbeat CPU 2 instructions: 10000004 cycles: 3384464 heartbeat IPC: 2.955 cumulative IPC: 2.955 (Simulation time: 00 hr 02 min 55 sec)
Heartbeat CPU 0 instructions: 20000003 cycles: 5086856 heartbeat IPC: 3.878 cumulative IPC: 3.932 (Simulation time: 00 hr 04 min 27 sec)
Heartbeat CPU 3 instructions: 20000005 cycles: 5130521 heartbeat IPC: 3.96 cumulative IPC: 3.898 (Simulation time: 00 hr 04 min 29 sec)
Heartbeat CPU 1 instructions: 10000004 cycles: 5764512 heartbeat IPC: 1.735 cumulative IPC: 1.735 (Simulation time: 00 hr 05 min 04 sec)
Heartbeat CPU 2 instructions: 20000008 cycles: 6669511 heartbeat IPC: 3.044 cumulative IPC: 2.999 (Simulation time: 00 hr 05 min 52 sec)
Heartbeat CPU 3 instructions: 30000005 cycles: 7646117 heartbeat IPC: 3.975 cumulative IPC: 3.924 (Simulation time: 00 hr 06 min 44 sec)
Heartbeat CPU 0 instructions: 30000005 cycles: 7681051 heartbeat IPC: 3.855 cumulative IPC: 3.906 (Simulation time: 00 hr 06 min 46 sec)
Heartbeat CPU 2 instructions: 30000009 cycles: 9874499 heartbeat IPC: 3.12 cumulative IPC: 3.038 (Simulation time: 00 hr 08 min 44 sec)
Heartbeat CPU 3 instructions: 40000006 cycles: 10163941 heartbeat IPC: 3.972 cumulative IPC: 3.935 (Simulation time: 00 hr 09 min 00 sec)
Heartbeat CPU 0 instructions: 40000009 cycles: 10184695 heartbeat IPC: 3.994 cumulative IPC: 3.927 (Simulation time: 00 hr 09 min 01 sec)
Heartbeat CPU 1 instructions: 20000004 cycles: 10554688 heartbeat IPC: 2.088 cumulative IPC: 1.895 (Simulation time: 00 hr 09 min 21 sec)
Warmup finished CPU 3 instructions: 50000000 cycles: 12680798 cumulative IPC: 3.943 (Simulation time: 00 hr 11 min 17 sec)
Heartbeat CPU 3 instructions: 50000008 cycles: 12680800 heartbeat IPC: 3.973 cumulative IPC: 3.943 (Simulation time: 00 hr 11 min 17 sec)
Warmup finished CPU 0 instructions: 50000002 cycles: 12688903 cumulative IPC: 3.94 (Simulation time: 00 hr 11 min 17 sec)
Heartbeat CPU 0 instructions: 50000010 cycles: 12688905 heartbeat IPC: 3.993 cumulative IPC: 3.94 (Simulation time: 00 hr 11 min 17 sec)
Heartbeat CPU 2 instructions: 40000012 cycles: 13055912 heartbeat IPC: 3.143 cumulative IPC: 3.064 (Simulation time: 00 hr 11 min 37 sec)
Heartbeat CPU 1 instructions: 30000005 cycles: 14929170 heartbeat IPC: 2.286 cumulative IPC: 2.009 (Simulation time: 00 hr 13 min 19 sec)
Heartbeat CPU 0 instructions: 60000013 cycles: 15191012 heartbeat IPC: 3.997 cumulative IPC: 3.95 (Simulation time: 00 hr 13 min 34 sec)
Heartbeat CPU 3 instructions: 60000010 cycles: 15197719 heartbeat IPC: 3.973 cumulative IPC: 3.948 (Simulation time: 00 hr 13 min 34 sec)
Warmup finished CPU 2 instructions: 50000004 cycles: 16200664 cumulative IPC: 3.086 (Simulation time: 00 hr 14 min 30 sec)
Heartbeat CPU 2 instructions: 50000014 cycles: 16200666 heartbeat IPC: 3.18 cumulative IPC: 3.086 (Simulation time: 00 hr 14 min 30 sec)
Heartbeat CPU 0 instructions: 70000015 cycles: 17695088 heartbeat IPC: 3.993 cumulative IPC: 3.956 (Simulation time: 00 hr 15 min 52 sec)
Heartbeat CPU 3 instructions: 70000011 cycles: 17714161 heartbeat IPC: 3.974 cumulative IPC: 3.952 (Simulation time: 00 hr 15 min 53 sec)
Heartbeat CPU 1 instructions: 40000007 cycles: 19215977 heartbeat IPC: 2.333 cumulative IPC: 2.082 (Simulation time: 00 hr 17 min 14 sec)
Heartbeat CPU 2 instructions: 60000014 cycles: 19360028 heartbeat IPC: 3.165 cumulative IPC: 3.099 (Simulation time: 00 hr 17 min 22 sec)
Heartbeat CPU 0 instructions: 80000015 cycles: 20197177 heartbeat IPC: 3.997 cumulative IPC: 3.961 (Simulation time: 00 hr 18 min 09 sec)
Heartbeat CPU 3 instructions: 80000012 cycles: 20229715 heartbeat IPC: 3.975 cumulative IPC: 3.955 (Simulation time: 00 hr 18 min 11 sec)
Heartbeat CPU 2 instructions: 70000014 cycles: 22453210 heartbeat IPC: 3.233 cumulative IPC: 3.118 (Simulation time: 00 hr 20 min 16 sec)
Heartbeat CPU 0 instructions: 90000015 cycles: 22700237 heartbeat IPC: 3.995 cumulative IPC: 3.965 (Simulation time: 00 hr 20 min 30 sec)
Heartbeat CPU 3 instructions: 90000012 cycles: 22745708 heartbeat IPC: 3.975 cumulative IPC: 3.957 (Simulation time: 00 hr 20 min 32 sec)
Warmup finished CPU 1 instructions: 50000003 cycles: 23036116 cumulative IPC: 2.171 (Simulation time: 00 hr 20 min 49 sec)
Warmup complete CPU 3 instructions: 91152691 cycles: 23036116 cumulative IPC: 3.957 (Simulation time: 00 hr 20 min 49 sec)
Warmup complete CPU 2 instructions: 71882074 cycles: 23036116 cumulative IPC: 3.12 (Simulation time: 00 hr 20 min 49 sec)
Warmup complete CPU 1 instructions: 50000003 cycles: 23036116 cumulative IPC: 2.171 (Simulation time: 00 hr 20 min 49 sec)
Warmup complete CPU 0 instructions: 91342772 cycles: 23036116 cumulative IPC: 3.965 (Simulation time: 00 hr 20 min 49 sec)
Heartbeat CPU 1 instructions: 50000008 cycles: 23036117 heartbeat IPC: 2.618 cumulative IPC: 5 (Simulation time: 00 hr 20 min 49 sec)
Heartbeat CPU 0 instructions: 100000017 cycles: 27330802 heartbeat IPC: 2.16 cumulative IPC: 2.016 (Simulation time: 00 hr 22 min 52 sec)
Heartbeat CPU 3 instructions: 100000013 cycles: 29382073 heartbeat IPC: 1.507 cumulative IPC: 1.394 (Simulation time: 00 hr 23 min 52 sec)
Heartbeat CPU 2 instructions: 80000016 cycles: 29761777 heartbeat IPC: 1.368 cumulative IPC: 1.207 (Simulation time: 00 hr 24 min 03 sec)
Heartbeat CPU 0 instructions: 110000021 cycles: 32309127 heartbeat IPC: 2.009 cumulative IPC: 2.012 (Simulation time: 00 hr 25 min 17 sec)
Heartbeat CPU 3 instructions: 110000013 cycles: 36550317 heartbeat IPC: 1.395 cumulative IPC: 1.395 (Simulation time: 00 hr 27 min 20 sec)
Heartbeat CPU 0 instructions: 120000022 cycles: 37279455 heartbeat IPC: 2.012 cumulative IPC: 2.012 (Simulation time: 00 hr 27 min 42 sec)
Heartbeat CPU 2 instructions: 90000017 cycles: 37805649 heartbeat IPC: 1.243 cumulative IPC: 1.227 (Simulation time: 00 hr 27 min 58 sec)
Heartbeat CPU 0 instructions: 130000023 cycles: 42383925 heartbeat IPC: 1.959 cumulative IPC: 1.998 (Simulation time: 00 hr 30 min 09 sec)
Heartbeat CPU 2 instructions: 100000018 cycles: 46009055 heartbeat IPC: 1.219 cumulative IPC: 1.224 (Simulation time: 00 hr 31 min 47 sec)
Heartbeat CPU 0 instructions: 140000026 cycles: 47629359 heartbeat IPC: 1.906 cumulative IPC: 1.978 (Simulation time: 00 hr 32 min 30 sec)
Heartbeat CPU 0 instructions: 150000026 cycles: 52730780 heartbeat IPC: 1.96 cumulative IPC: 1.975 (Simulation time: 00 hr 34 min 50 sec)
Heartbeat CPU 3 instructions: 120000014 cycles: 53347326 heartbeat IPC: 0.5953 cumulative IPC: 0.9517 (Simulation time: 00 hr 35 min 08 sec)
Heartbeat CPU 2 instructions: 110000018 cycles: 54141213 heartbeat IPC: 1.23 cumulative IPC: 1.225 (Simulation time: 00 hr 35 min 31 sec)
Heartbeat CPU 0 instructions: 160000028 cycles: 57794096 heartbeat IPC: 1.975 cumulative IPC: 1.975 (Simulation time: 00 hr 37 min 17 sec)
Heartbeat CPU 1 instructions: 60000008 cycles: 58975004 heartbeat IPC: 0.2783 cumulative IPC: 0.2783 (Simulation time: 00 hr 37 min 51 sec)
Heartbeat CPU 3 instructions: 130000018 cycles: 60767725 heartbeat IPC: 1.348 cumulative IPC: 1.03 (Simulation time: 00 hr 38 min 43 sec)
Heartbeat CPU 2 instructions: 120000018 cycles: 61953843 heartbeat IPC: 1.28 cumulative IPC: 1.236 (Simulation time: 00 hr 39 min 18 sec)
Heartbeat CPU 0 instructions: 170000028 cycles: 62983383 heartbeat IPC: 1.927 cumulative IPC: 1.969 (Simulation time: 00 hr 39 min 48 sec)
Heartbeat CPU 3 instructions: 140000018 cycles: 68069993 heartbeat IPC: 1.369 cumulative IPC: 1.085 (Simulation time: 00 hr 42 min 15 sec)
Heartbeat CPU 0 instructions: 180000029 cycles: 68211924 heartbeat IPC: 1.913 cumulative IPC: 1.962 (Simulation time: 00 hr 42 min 19 sec)
Heartbeat CPU 2 instructions: 130000022 cycles: 70193809 heartbeat IPC: 1.214 cumulative IPC: 1.232 (Simulation time: 00 hr 43 min 16 sec)
Heartbeat CPU 0 instructions: 190000030 cycles: 73378640 heartbeat IPC: 1.935 cumulative IPC: 1.96 (Simulation time: 00 hr 44 min 49 sec)
Heartbeat CPU 3 instructions: 150000018 cycles: 75299396 heartbeat IPC: 1.383 cumulative IPC: 1.126 (Simulation time: 00 hr 45 min 46 sec)
Heartbeat CPU 2 instructions: 140000022 cycles: 78253020 heartbeat IPC: 1.241 cumulative IPC: 1.234 (Simulation time: 00 hr 47 min 12 sec)
Heartbeat CPU 0 instructions: 200000031 cycles: 78347540 heartbeat IPC: 2.013 cumulative IPC: 1.964 (Simulation time: 00 hr 47 min 15 sec)
Heartbeat CPU 3 instructions: 160000020 cycles: 82536530 heartbeat IPC: 1.382 cumulative IPC: 1.157 (Simulation time: 00 hr 49 min 18 sec)
Heartbeat CPU 0 instructions: 210000033 cycles: 83441657 heartbeat IPC: 1.963 cumulative IPC: 1.964 (Simulation time: 00 hr 49 min 44 sec)
Heartbeat CPU 2 instructions: 150000024 cycles: 86194036 heartbeat IPC: 1.259 cumulative IPC: 1.237 (Simulation time: 00 hr 51 min 04 sec)
Heartbeat CPU 0 instructions: 220000034 cycles: 88626624 heartbeat IPC: 1.929 cumulative IPC: 1.962 (Simulation time: 00 hr 52 min 15 sec)
Heartbeat CPU 3 instructions: 170000022 cycles: 89875118 heartbeat IPC: 1.363 cumulative IPC: 1.18 (Simulation time: 00 hr 52 min 52 sec)
Heartbeat CPU 1 instructions: 70000008 cycles: 92199538 heartbeat IPC: 0.301 cumulative IPC: 0.2892 (Simulation time: 00 hr 54 min 00 sec)
Heartbeat CPU 0 instructions: 230000034 cycles: 93700773 heartbeat IPC: 1.971 cumulative IPC: 1.962 (Simulation time: 00 hr 54 min 44 sec)
Heartbeat CPU 2 instructions: 160000026 cycles: 94271303 heartbeat IPC: 1.238 cumulative IPC: 1.237 (Simulation time: 00 hr 55 min 01 sec)
Heartbeat CPU 3 instructions: 180000024 cycles: 97134179 heartbeat IPC: 1.378 cumulative IPC: 1.199 (Simulation time: 00 hr 56 min 25 sec)
Heartbeat CPU 0 instructions: 240000036 cycles: 98804547 heartbeat IPC: 1.959 cumulative IPC: 1.962 (Simulation time: 00 hr 57 min 14 sec)
Heartbeat CPU 2 instructions: 170000026 cycles: 102393431 heartbeat IPC: 1.231 cumulative IPC: 1.236 (Simulation time: 00 hr 58 min 59 sec)
Heartbeat CPU 0 instructions: 250000037 cycles: 103828271 heartbeat IPC: 1.991 cumulative IPC: 1.964 (Simulation time: 00 hr 59 min 41 sec)
Heartbeat CPU 3 instructions: 190000026 cycles: 104416006 heartbeat IPC: 1.373 cumulative IPC: 1.215 (Simulation time: 00 hr 59 min 58 sec)
Heartbeat CPU 0 instructions: 260000039 cycles: 108875391 heartbeat IPC: 1.981 cumulative IPC: 1.965 (Simulation time: 01 hr 02 min 08 sec)
Heartbeat CPU 2 instructions: 180000026 cycles: 110463671 heartbeat IPC: 1.239 cumulative IPC: 1.237 (Simulation time: 01 hr 02 min 55 sec)
Heartbeat CPU 3 instructions: 200000028 cycles: 111753594 heartbeat IPC: 1.363 cumulative IPC: 1.227 (Simulation time: 01 hr 03 min 33 sec)
Heartbeat CPU 0 instructions: 270000043 cycles: 113975038 heartbeat IPC: 1.961 cumulative IPC: 1.965 (Simulation time: 01 hr 04 min 38 sec)
Heartbeat CPU 2 instructions: 190000029 cycles: 118802420 heartbeat IPC: 1.199 cumulative IPC: 1.233 (Simulation time: 01 hr 06 min 59 sec)
Heartbeat CPU 0 instructions: 280000045 cycles: 118954184 heartbeat IPC: 2.008 cumulative IPC: 1.967 (Simulation time: 01 hr 07 min 04 sec)
Heartbeat CPU 3 instructions: 210000030 cycles: 118977157 heartbeat IPC: 1.384 cumulative IPC: 1.239 (Simulation time: 01 hr 07 min 04 sec)
Heartbeat CPU 0 instructions: 290000045 cycles: 124014963 heartbeat IPC: 1.976 cumulative IPC: 1.967 (Simulation time: 01 hr 09 min 31 sec)
Heartbeat CPU 3 instructions: 220000030 cycles: 126231750 heartbeat IPC: 1.378 cumulative IPC: 1.249 (Simulation time: 01 hr 10 min 36 sec)
Heartbeat CPU 1 instructions: 80000011 cycles: 126476479 heartbeat IPC: 0.2917 cumulative IPC: 0.29 (Simulation time: 01 hr 10 min 43 sec)
Heartbeat CPU 2 instructions: 200000031 cycles: 127172024 heartbeat IPC: 1.195 cumulative IPC: 1.23 (Simulation time: 01 hr 11 min 04 sec)
Heartbeat CPU 0 instructions: 300000049 cycles: 129106614 heartbeat IPC: 1.964 cumulative IPC: 1.967 (Simulation time: 01 hr 12 min 00 sec)
Heartbeat CPU 3 instructions: 230000033 cycles: 133475596 heartbeat IPC: 1.38 cumulative IPC: 1.257 (Simulation time: 01 hr 14 min 10 sec)
Heartbeat CPU 0 instructions: 310000052 cycles: 134092517 heartbeat IPC: 2.006 cumulative IPC: 1.969 (Simulation time: 01 hr 14 min 28 sec)
Heartbeat CPU 2 instructions: 210000031 cycles: 135166913 heartbeat IPC: 1.251 cumulative IPC: 1.232 (Simulation time: 01 hr 14 min 59 sec)
Heartbeat CPU 0 instructions: 320000052 cycles: 139181049 heartbeat IPC: 1.965 cumulative IPC: 1.969 (Simulation time: 01 hr 16 min 57 sec)
Heartbeat CPU 3 instructions: 240000037 cycles: 140707407 heartbeat IPC: 1.383 cumulative IPC: 1.265 (Simulation time: 01 hr 17 min 41 sec)
Heartbeat CPU 2 instructions: 220000035 cycles: 143414416 heartbeat IPC: 1.212 cumulative IPC: 1.23 (Simulation time: 01 hr 19 min 00 sec)
Heartbeat CPU 0 instructions: 330000054 cycles: 144308627 heartbeat IPC: 1.95 cumulative IPC: 1.968 (Simulation time: 01 hr 19 min 25 sec)
Heartbeat CPU 3 instructions: 250000038 cycles: 147926299 heartbeat IPC: 1.385 cumulative IPC: 1.272 (Simulation time: 01 hr 21 min 10 sec)
Heartbeat CPU 0 instructions: 340000054 cycles: 149446202 heartbeat IPC: 1.946 cumulative IPC: 1.967 (Simulation time: 01 hr 21 min 54 sec)
Simulation finished CPU 0 instructions: 250000000 cycles: 127057918 cumulative IPC: 1.968 (Simulation time: 01 hr 22 min 13 sec)
Heartbeat CPU 2 instructions: 230000035 cycles: 151744202 heartbeat IPC: 1.201 cumulative IPC: 1.229 (Simulation time: 01 hr 23 min 01 sec)
Heartbeat CPU 0 instructions: 350000057 cycles: 154545545 heartbeat IPC: 1.961 cumulative IPC: 1.967 (Simulation time: 01 hr 24 min 22 sec)
Heartbeat CPU 3 instructions: 260000039 cycles: 155144789 heartbeat IPC: 1.385 cumulative IPC: 1.278 (Simulation time: 01 hr 24 min 40 sec)
Heartbeat CPU 0 instructions: 360000057 cycles: 159752383 heartbeat IPC: 1.921 cumulative IPC: 1.965 (Simulation time: 01 hr 26 min 54 sec)
Heartbeat CPU 2 instructions: 240000038 cycles: 159758829 heartbeat IPC: 1.248 cumulative IPC: 1.23 (Simulation time: 01 hr 26 min 54 sec)
Heartbeat CPU 1 instructions: 90000012 cycles: 159953875 heartbeat IPC: 0.2987 cumulative IPC: 0.2921 (Simulation time: 01 hr 27 min 00 sec)
Heartbeat CPU 3 instructions: 270000039 cycles: 162369829 heartbeat IPC: 1.384 cumulative IPC: 1.284 (Simulation time: 01 hr 28 min 11 sec)
Heartbeat CPU 0 instructions: 370000057 cycles: 164758438 heartbeat IPC: 1.998 cumulative IPC: 1.966 (Simulation time: 01 hr 29 min 19 sec)
Heartbeat CPU 2 instructions: 250000041 cycles: 167723363 heartbeat IPC: 1.256 cumulative IPC: 1.231 (Simulation time: 01 hr 30 min 45 sec)
Heartbeat CPU 3 instructions: 280000041 cycles: 169593082 heartbeat IPC: 1.384 cumulative IPC: 1.289 (Simulation time: 01 hr 31 min 39 sec)
Heartbeat CPU 0 instructions: 380000060 cycles: 169943492 heartbeat IPC: 1.929 cumulative IPC: 1.965 (Simulation time: 01 hr 31 min 49 sec)
Heartbeat CPU 0 instructions: 390000064 cycles: 175013006 heartbeat IPC: 1.973 cumulative IPC: 1.965 (Simulation time: 01 hr 34 min 16 sec)
Heartbeat CPU 2 instructions: 260000042 cycles: 175764330 heartbeat IPC: 1.244 cumulative IPC: 1.232 (Simulation time: 01 hr 34 min 38 sec)
Heartbeat CPU 3 instructions: 290000042 cycles: 176797193 heartbeat IPC: 1.388 cumulative IPC: 1.293 (Simulation time: 01 hr 35 min 08 sec)
Heartbeat CPU 0 instructions: 400000064 cycles: 180229308 heartbeat IPC: 1.917 cumulative IPC: 1.964 (Simulation time: 01 hr 36 min 47 sec)
Heartbeat CPU 2 instructions: 270000046 cycles: 183673610 heartbeat IPC: 1.264 cumulative IPC: 1.233 (Simulation time: 01 hr 38 min 27 sec)
Heartbeat CPU 3 instructions: 300000042 cycles: 184025452 heartbeat IPC: 1.383 cumulative IPC: 1.297 (Simulation time: 01 hr 38 min 37 sec)
Heartbeat CPU 0 instructions: 410000065 cycles: 185362454 heartbeat IPC: 1.948 cumulative IPC: 1.963 (Simulation time: 01 hr 39 min 15 sec)
Heartbeat CPU 0 instructions: 420000065 cycles: 190456514 heartbeat IPC: 1.963 cumulative IPC: 1.963 (Simulation time: 01 hr 41 min 42 sec)
Heartbeat CPU 3 instructions: 310000044 cycles: 191242973 heartbeat IPC: 1.386 cumulative IPC: 1.301 (Simulation time: 01 hr 42 min 05 sec)
Heartbeat CPU 2 instructions: 280000047 cycles: 191907244 heartbeat IPC: 1.215 cumulative IPC: 1.232 (Simulation time: 01 hr 42 min 24 sec)
Heartbeat CPU 1 instructions: 100000014 cycles: 195320090 heartbeat IPC: 0.2828 cumulative IPC: 0.2902 (Simulation time: 01 hr 44 min 03 sec)
Heartbeat CPU 0 instructions: 430000067 cycles: 195574719 heartbeat IPC: 1.954 cumulative IPC: 1.963 (Simulation time: 01 hr 44 min 11 sec)
Heartbeat CPU 3 instructions: 320000044 cycles: 198452776 heartbeat IPC: 1.387 cumulative IPC: 1.305 (Simulation time: 01 hr 45 min 35 sec)
Heartbeat CPU 2 instructions: 290000050 cycles: 200091159 heartbeat IPC: 1.222 cumulative IPC: 1.232 (Simulation time: 01 hr 46 min 22 sec)
Heartbeat CPU 0 instructions: 440000068 cycles: 200745437 heartbeat IPC: 1.934 cumulative IPC: 1.962 (Simulation time: 01 hr 46 min 41 sec)
Heartbeat CPU 3 instructions: 330000044 cycles: 205670537 heartbeat IPC: 1.385 cumulative IPC: 1.308 (Simulation time: 01 hr 49 min 04 sec)
Heartbeat CPU 0 instructions: 450000070 cycles: 205745369 heartbeat IPC: 2 cumulative IPC: 1.963 (Simulation time: 01 hr 49 min 06 sec)
Heartbeat CPU 2 instructions: 300000050 cycles: 208022842 heartbeat IPC: 1.261 cumulative IPC: 1.233 (Simulation time: 01 hr 50 min 12 sec)
Heartbeat CPU 0 instructions: 460000072 cycles: 210760641 heartbeat IPC: 1.994 cumulative IPC: 1.964 (Simulation time: 01 hr 51 min 31 sec)
Heartbeat CPU 3 instructions: 340000046 cycles: 212883635 heartbeat IPC: 1.386 cumulative IPC: 1.311 (Simulation time: 01 hr 52 min 33 sec)
Simulation finished CPU 3 instructions: 250000001 cycles: 190692947 cumulative IPC: 1.311 (Simulation time: 01 hr 52 min 57 sec)
Heartbeat CPU 0 instructions: 470000072 cycles: 215628197 heartbeat IPC: 2.054 cumulative IPC: 1.966 (Simulation time: 01 hr 53 min 52 sec)
Heartbeat CPU 2 instructions: 310000053 cycles: 216129045 heartbeat IPC: 1.234 cumulative IPC: 1.233 (Simulation time: 01 hr 54 min 07 sec)
Heartbeat CPU 3 instructions: 350000049 cycles: 220133350 heartbeat IPC: 1.379 cumulative IPC: 1.313 (Simulation time: 01 hr 56 min 03 sec)
Heartbeat CPU 0 instructions: 480000073 cycles: 220576088 heartbeat IPC: 2.021 cumulative IPC: 1.967 (Simulation time: 01 hr 56 min 16 sec)
Heartbeat CPU 2 instructions: 320000057 cycles: 224086875 heartbeat IPC: 1.257 cumulative IPC: 1.234 (Simulation time: 01 hr 57 min 58 sec)
Heartbeat CPU 0 instructions: 490000077 cycles: 225448924 heartbeat IPC: 2.052 cumulative IPC: 1.97 (Simulation time: 01 hr 58 min 39 sec)
Simulation finished CPU 2 instructions: 250000000 cycles: 202582789 cumulative IPC: 1.234 (Simulation time: 01 hr 58 min 44 sec)
Heartbeat CPU 3 instructions: 360000051 cycles: 227368009 heartbeat IPC: 1.382 cumulative IPC: 1.316 (Simulation time: 01 hr 59 min 35 sec)
Heartbeat CPU 1 instructions: 110000015 cycles: 229951909 heartbeat IPC: 0.2888 cumulative IPC: 0.29 (Simulation time: 02 hr 00 min 50 sec)
Heartbeat CPU 0 instructions: 500000080 cycles: 230348533 heartbeat IPC: 2.041 cumulative IPC: 1.971 (Simulation time: 02 hr 01 min 01 sec)
Heartbeat CPU 2 instructions: 330000061 cycles: 232266871 heartbeat IPC: 1.222 cumulative IPC: 1.234 (Simulation time: 02 hr 01 min 57 sec)
Heartbeat CPU 3 instructions: 370000053 cycles: 234548224 heartbeat IPC: 1.393 cumulative IPC: 1.318 (Simulation time: 02 hr 03 min 03 sec)
Heartbeat CPU 0 instructions: 510000084 cycles: 235223012 heartbeat IPC: 2.052 cumulative IPC: 1.973 (Simulation time: 02 hr 03 min 23 sec)
Heartbeat CPU 0 instructions: 520000085 cycles: 240141371 heartbeat IPC: 2.033 cumulative IPC: 1.974 (Simulation time: 02 hr 05 min 46 sec)
Heartbeat CPU 2 instructions: 340000061 cycles: 240241024 heartbeat IPC: 1.254 cumulative IPC: 1.234 (Simulation time: 02 hr 05 min 49 sec)
Heartbeat CPU 3 instructions: 380000053 cycles: 241804117 heartbeat IPC: 1.378 cumulative IPC: 1.32 (Simulation time: 02 hr 06 min 34 sec)
Heartbeat CPU 0 instructions: 530000087 cycles: 246480323 heartbeat IPC: 1.578 cumulative IPC: 1.963 (Simulation time: 02 hr 08 min 58 sec)
Heartbeat CPU 2 instructions: 350000061 cycles: 248365939 heartbeat IPC: 1.231 cumulative IPC: 1.234 (Simulation time: 02 hr 09 min 56 sec)
Heartbeat CPU 3 instructions: 390000053 cycles: 249029628 heartbeat IPC: 1.384 cumulative IPC: 1.322 (Simulation time: 02 hr 10 min 15 sec)
Heartbeat CPU 0 instructions: 540000088 cycles: 252355896 heartbeat IPC: 1.702 cumulative IPC: 1.956 (Simulation time: 02 hr 11 min 53 sec)
Heartbeat CPU 3 instructions: 400000055 cycles: 256223955 heartbeat IPC: 1.39 cumulative IPC: 1.324 (Simulation time: 02 hr 13 min 46 sec)
Heartbeat CPU 2 instructions: 360000061 cycles: 256246809 heartbeat IPC: 1.269 cumulative IPC: 1.235 (Simulation time: 02 hr 13 min 47 sec)
Heartbeat CPU 0 instructions: 550000090 cycles: 257235342 heartbeat IPC: 2.049 cumulative IPC: 1.958 (Simulation time: 02 hr 14 min 16 sec)
Heartbeat CPU 0 instructions: 560000093 cycles: 262148759 heartbeat IPC: 2.035 cumulative IPC: 1.96 (Simulation time: 02 hr 16 min 39 sec)
Heartbeat CPU 3 instructions: 410000056 cycles: 263467962 heartbeat IPC: 1.38 cumulative IPC: 1.326 (Simulation time: 02 hr 17 min 17 sec)
Heartbeat CPU 2 instructions: 370000062 cycles: 264248628 heartbeat IPC: 1.25 cumulative IPC: 1.236 (Simulation time: 02 hr 17 min 40 sec)
Heartbeat CPU 1 instructions: 120000015 cycles: 265012927 heartbeat IPC: 0.2852 cumulative IPC: 0.2893 (Simulation time: 02 hr 18 min 02 sec)
Heartbeat CPU 0 instructions: 570000096 cycles: 267031217 heartbeat IPC: 2.048 cumulative IPC: 1.962 (Simulation time: 02 hr 19 min 01 sec)
Heartbeat CPU 3 instructions: 420000057 cycles: 270745383 heartbeat IPC: 1.374 cumulative IPC: 1.328 (Simulation time: 02 hr 20 min 49 sec)
Heartbeat CPU 0 instructions: 580000098 cycles: 271916215 heartbeat IPC: 2.047 cumulative IPC: 1.963 (Simulation time: 02 hr 21 min 24 sec)
Heartbeat CPU 2 instructions: 380000062 cycles: 272001776 heartbeat IPC: 1.29 cumulative IPC: 1.238 (Simulation time: 02 hr 21 min 26 sec)
Heartbeat CPU 0 instructions: 590000101 cycles: 276783185 heartbeat IPC: 2.055 cumulative IPC: 1.965 (Simulation time: 02 hr 23 min 45 sec)
Heartbeat CPU 3 instructions: 430000058 cycles: 278057084 heartbeat IPC: 1.368 cumulative IPC: 1.329 (Simulation time: 02 hr 24 min 22 sec)
Heartbeat CPU 2 instructions: 390000066 cycles: 279915102 heartbeat IPC: 1.264 cumulative IPC: 1.238 (Simulation time: 02 hr 25 min 16 sec)
Heartbeat CPU 0 instructions: 600000101 cycles: 281651953 heartbeat IPC: 2.054 cumulative IPC: 1.967 (Simulation time: 02 hr 26 min 07 sec)
Heartbeat CPU 3 instructions: 440000060 cycles: 285358022 heartbeat IPC: 1.37 cumulative IPC: 1.33 (Simulation time: 02 hr 27 min 55 sec)
Heartbeat CPU 0 instructions: 610000101 cycles: 286530554 heartbeat IPC: 2.05 cumulative IPC: 1.968 (Simulation time: 02 hr 28 min 29 sec)
Heartbeat CPU 2 instructions: 400000067 cycles: 287796013 heartbeat IPC: 1.269 cumulative IPC: 1.239 (Simulation time: 02 hr 29 min 05 sec)
Heartbeat CPU 0 instructions: 620000101 cycles: 291424418 heartbeat IPC: 2.043 cumulative IPC: 1.97 (Simulation time: 02 hr 30 min 51 sec)
Heartbeat CPU 3 instructions: 450000060 cycles: 292575861 heartbeat IPC: 1.385 cumulative IPC: 1.331 (Simulation time: 02 hr 31 min 24 sec)
Heartbeat CPU 2 instructions: 410000067 cycles: 295965015 heartbeat IPC: 1.224 cumulative IPC: 1.239 (Simulation time: 02 hr 33 min 03 sec)
Heartbeat CPU 0 instructions: 630000101 cycles: 296321067 heartbeat IPC: 2.042 cumulative IPC: 1.971 (Simulation time: 02 hr 33 min 13 sec)
Heartbeat CPU 1 instructions: 130000015 cycles: 299274692 heartbeat IPC: 0.2919 cumulative IPC: 0.2896 (Simulation time: 02 hr 34 min 38 sec)
Heartbeat CPU 3 instructions: 460000061 cycles: 299827707 heartbeat IPC: 1.379 cumulative IPC: 1.333 (Simulation time: 02 hr 34 min 55 sec)
Heartbeat CPU 0 instructions: 640000105 cycles: 301193333 heartbeat IPC: 2.052 cumulative IPC: 1.972 (Simulation time: 02 hr 35 min 34 sec)
Heartbeat CPU 2 instructions: 420000067 cycles: 303825643 heartbeat IPC: 1.272 cumulative IPC: 1.24 (Simulation time: 02 hr 36 min 51 sec)
Heartbeat CPU 0 instructions: 650000107 cycles: 306090590 heartbeat IPC: 2.042 cumulative IPC: 1.974 (Simulation time: 02 hr 37 min 58 sec)
Heartbeat CPU 3 instructions: 470000061 cycles: 307129513 heartbeat IPC: 1.37 cumulative IPC: 1.334 (Simulation time: 02 hr 38 min 28 sec)
Heartbeat CPU 0 instructions: 660000107 cycles: 311083065 heartbeat IPC: 2.003 cumulative IPC: 1.974 (Simulation time: 02 hr 40 min 24 sec)
Heartbeat CPU 2 instructions: 430000069 cycles: 311488608 heartbeat IPC: 1.305 cumulative IPC: 1.242 (Simulation time: 02 hr 40 min 36 sec)
Heartbeat CPU 3 instructions: 480000062 cycles: 314358674 heartbeat IPC: 1.383 cumulative IPC: 1.335 (Simulation time: 02 hr 41 min 59 sec)
Heartbeat CPU 0 instructions: 670000111 cycles: 316174249 heartbeat IPC: 1.964 cumulative IPC: 1.974 (Simulation time: 02 hr 42 min 52 sec)
Heartbeat CPU 2 instructions: 440000070 cycles: 319396181 heartbeat IPC: 1.265 cumulative IPC: 1.242 (Simulation time: 02 hr 44 min 25 sec)
Heartbeat CPU 0 instructions: 680000112 cycles: 321327997 heartbeat IPC: 1.94 cumulative IPC: 1.973 (Simulation time: 02 hr 45 min 21 sec)
Heartbeat CPU 3 instructions: 490000063 cycles: 321575936 heartbeat IPC: 1.386 cumulative IPC: 1.336 (Simulation time: 02 hr 45 min 28 sec)
Heartbeat CPU 0 instructions: 690000116 cycles: 326413790 heartbeat IPC: 1.966 cumulative IPC: 1.973 (Simulation time: 02 hr 47 min 49 sec)
Heartbeat CPU 2 instructions: 450000073 cycles: 327446246 heartbeat IPC: 1.242 cumulative IPC: 1.242 (Simulation time: 02 hr 48 min 18 sec)
Heartbeat CPU 3 instructions: 500000066 cycles: 328762586 heartbeat IPC: 1.391 cumulative IPC: 1.337 (Simulation time: 02 hr 48 min 56 sec)
Heartbeat CPU 0 instructions: 700000117 cycles: 331463162 heartbeat IPC: 1.98 cumulative IPC: 1.973 (Simulation time: 02 hr 50 min 15 sec)
Heartbeat CPU 1 instructions: 140000016 cycles: 333123817 heartbeat IPC: 0.2954 cumulative IPC: 0.2902 (Simulation time: 02 hr 51 min 03 sec)
Heartbeat CPU 2 instructions: 460000073 cycles: 335629179 heartbeat IPC: 1.222 cumulative IPC: 1.242 (Simulation time: 02 hr 52 min 15 sec)
Heartbeat CPU 3 instructions: 510000069 cycles: 336015871 heartbeat IPC: 1.379 cumulative IPC: 1.338 (Simulation time: 02 hr 52 min 26 sec)
Heartbeat CPU 0 instructions: 710000118 cycles: 336598355 heartbeat IPC: 1.947 cumulative IPC: 1.973 (Simulation time: 02 hr 52 min 43 sec)
Heartbeat CPU 0 instructions: 720000119 cycles: 341873429 heartbeat IPC: 1.896 cumulative IPC: 1.972 (Simulation time: 02 hr 55 min 17 sec)
Heartbeat CPU 3 instructions: 520000070 cycles: 343212952 heartbeat IPC: 1.389 cumulative IPC: 1.339 (Simulation time: 02 hr 55 min 56 sec)
Heartbeat CPU 2 instructions: 470000073 cycles: 343601327 heartbeat IPC: 1.254 cumulative IPC: 1.242 (Simulation time: 02 hr 56 min 07 sec)
Heartbeat CPU 0 instructions: 730000119 cycles: 347027902 heartbeat IPC: 1.94 cumulative IPC: 1.971 (Simulation time: 02 hr 57 min 46 sec)
Heartbeat CPU 3 instructions: 530000073 cycles: 350468693 heartbeat IPC: 1.378 cumulative IPC: 1.34 (Simulation time: 02 hr 59 min 26 sec)
Heartbeat CPU 2 instructions: 480000076 cycles: 351687945 heartbeat IPC: 1.237 cumulative IPC: 1.242 (Simulation time: 03 hr 00 min 02 sec)
Heartbeat CPU 0 instructions: 740000119 cycles: 352114076 heartbeat IPC: 1.966 cumulative IPC: 1.971 (Simulation time: 03 hr 00 min 14 sec)
Heartbeat CPU 0 instructions: 750000120 cycles: 357303433 heartbeat IPC: 1.927 cumulative IPC: 1.97 (Simulation time: 03 hr 02 min 44 sec)
Heartbeat CPU 3 instructions: 540000075 cycles: 357694206 heartbeat IPC: 1.384 cumulative IPC: 1.341 (Simulation time: 03 hr 02 min 56 sec)
Heartbeat CPU 2 instructions: 490000079 cycles: 359529724 heartbeat IPC: 1.275 cumulative IPC: 1.243 (Simulation time: 03 hr 03 min 49 sec)
Heartbeat CPU 0 instructions: 760000124 cycles: 362399939 heartbeat IPC: 1.962 cumulative IPC: 1.97 (Simulation time: 03 hr 05 min 13 sec)
Heartbeat CPU 3 instructions: 550000078 cycles: 364917738 heartbeat IPC: 1.384 cumulative IPC: 1.342 (Simulation time: 03 hr 06 min 26 sec)
Heartbeat CPU 1 instructions: 150000017 cycles: 367354591 heartbeat IPC: 0.2921 cumulative IPC: 0.2904 (Simulation time: 03 hr 07 min 37 sec)
Heartbeat CPU 0 instructions: 770000127 cycles: 367413426 heartbeat IPC: 1.995 cumulative IPC: 1.971 (Simulation time: 03 hr 07 min 39 sec)
Heartbeat CPU 2 instructions: 500000083 cycles: 367414544 heartbeat IPC: 1.268 cumulative IPC: 1.243 (Simulation time: 03 hr 07 min 39 sec)
Heartbeat CPU 3 instructions: 560000081 cycles: 372136638 heartbeat IPC: 1.385 cumulative IPC: 1.343 (Simulation time: 03 hr 09 min 56 sec)
Heartbeat CPU 0 instructions: 780000128 cycles: 372494615 heartbeat IPC: 1.968 cumulative IPC: 1.971 (Simulation time: 03 hr 10 min 07 sec)
Heartbeat CPU 2 instructions: 510000084 cycles: 375163360 heartbeat IPC: 1.291 cumulative IPC: 1.244 (Simulation time: 03 hr 11 min 25 sec)
Heartbeat CPU 0 instructions: 790000131 cycles: 377492878 heartbeat IPC: 2.001 cumulative IPC: 1.971 (Simulation time: 03 hr 12 min 32 sec)
Heartbeat CPU 3 instructions: 570000081 cycles: 379336905 heartbeat IPC: 1.389 cumulative IPC: 1.344 (Simulation time: 03 hr 13 min 26 sec)
Heartbeat CPU 0 instructions: 800000132 cycles: 382563174 heartbeat IPC: 1.972 cumulative IPC: 1.971 (Simulation time: 03 hr 15 min 00 sec)
Heartbeat CPU 2 instructions: 520000087 cycles: 382957348 heartbeat IPC: 1.283 cumulative IPC: 1.245 (Simulation time: 03 hr 15 min 12 sec)
Heartbeat CPU 3 instructions: 580000082 cycles: 386511192 heartbeat IPC: 1.394 cumulative IPC: 1.345 (Simulation time: 03 hr 16 min 55 sec)
Heartbeat CPU 0 instructions: 810000133 cycles: 387636188 heartbeat IPC: 1.971 cumulative IPC: 1.971 (Simulation time: 03 hr 17 min 28 sec)
Heartbeat CPU 2 instructions: 530000091 cycles: 390773380 heartbeat IPC: 1.279 cumulative IPC: 1.246 (Simulation time: 03 hr 18 min 59 sec)
Heartbeat CPU 0 instructions: 820000133 cycles: 392684774 heartbeat IPC: 1.981 cumulative IPC: 1.971 (Simulation time: 03 hr 19 min 55 sec)
Heartbeat CPU 3 instructions: 590000084 cycles: 393691248 heartbeat IPC: 1.393 cumulative IPC: 1.346 (Simulation time: 03 hr 20 min 24 sec)
Heartbeat CPU 0 instructions: 830000134 cycles: 397683191 heartbeat IPC: 2.001 cumulative IPC: 1.972 (Simulation time: 03 hr 22 min 21 sec)
Heartbeat CPU 2 instructions: 540000093 cycles: 398473511 heartbeat IPC: 1.299 cumulative IPC: 1.247 (Simulation time: 03 hr 22 min 44 sec)
Heartbeat CPU 3 instructions: 600000084 cycles: 400855378 heartbeat IPC: 1.396 cumulative IPC: 1.347 (Simulation time: 03 hr 23 min 54 sec)
Heartbeat CPU 1 instructions: 160000020 cycles: 402234124 heartbeat IPC: 0.2867 cumulative IPC: 0.2901 (Simulation time: 03 hr 24 min 34 sec)
Heartbeat CPU 0 instructions: 840000134 cycles: 402751583 heartbeat IPC: 1.973 cumulative IPC: 1.972 (Simulation time: 03 hr 24 min 50 sec)
Heartbeat CPU 2 instructions: 550000093 cycles: 406193867 heartbeat IPC: 1.295 cumulative IPC: 1.248 (Simulation time: 03 hr 26 min 30 sec)
Heartbeat CPU 0 instructions: 850000135 cycles: 407741422 heartbeat IPC: 2.004 cumulative IPC: 1.972 (Simulation time: 03 hr 27 min 15 sec)
Heartbeat CPU 3 instructions: 610000086 cycles: 408088274 heartbeat IPC: 1.383 cumulative IPC: 1.347 (Simulation time: 03 hr 27 min 26 sec)
Heartbeat CPU 0 instructions: 860000135 cycles: 412813730 heartbeat IPC: 1.971 cumulative IPC: 1.972 (Simulation time: 03 hr 29 min 44 sec)
Heartbeat CPU 2 instructions: 560000097 cycles: 413897327 heartbeat IPC: 1.298 cumulative IPC: 1.249 (Simulation time: 03 hr 30 min 15 sec)
Heartbeat CPU 3 instructions: 620000087 cycles: 415303918 heartbeat IPC: 1.386 cumulative IPC: 1.348 (Simulation time: 03 hr 30 min 56 sec)
Heartbeat CPU 0 instructions: 870000137 cycles: 417808555 heartbeat IPC: 2.002 cumulative IPC: 1.972 (Simulation time: 03 hr 32 min 09 sec)
Heartbeat CPU 2 instructions: 570000097 cycles: 421471268 heartbeat IPC: 1.32 cumulative IPC: 1.25 (Simulation time: 03 hr 33 min 57 sec)
Heartbeat CPU 3 instructions: 630000089 cycles: 422546878 heartbeat IPC: 1.381 cumulative IPC: 1.349 (Simulation time: 03 hr 34 min 29 sec)
Heartbeat CPU 0 instructions: 880000138 cycles: 422911372 heartbeat IPC: 1.96 cumulative IPC: 1.972 (Simulation time: 03 hr 34 min 39 sec)
Heartbeat CPU 0 instructions: 890000138 cycles: 427909351 heartbeat IPC: 2.001 cumulative IPC: 1.973 (Simulation time: 03 hr 37 min 05 sec)
Heartbeat CPU 2 instructions: 580000097 cycles: 429245773 heartbeat IPC: 1.286 cumulative IPC: 1.251 (Simulation time: 03 hr 37 min 44 sec)
Heartbeat CPU 3 instructions: 640000089 cycles: 429819404 heartbeat IPC: 1.375 cumulative IPC: 1.349 (Simulation time: 03 hr 38 min 00 sec)
Heartbeat CPU 0 instructions: 900000139 cycles: 432991174 heartbeat IPC: 1.968 cumulative IPC: 1.973 (Simulation time: 03 hr 39 min 32 sec)
Heartbeat CPU 1 instructions: 170000022 cycles: 436007433 heartbeat IPC: 0.2961 cumulative IPC: 0.2906 (Simulation time: 03 hr 41 min 00 sec)
Heartbeat CPU 3 instructions: 650000093 cycles: 437051820 heartbeat IPC: 1.383 cumulative IPC: 1.35 (Simulation time: 03 hr 41 min 31 sec)
Heartbeat CPU 2 instructions: 590000099 cycles: 437443006 heartbeat IPC: 1.22 cumulative IPC: 1.25 (Simulation time: 03 hr 41 min 42 sec)
Heartbeat CPU 0 instructions: 910000143 cycles: 438134505 heartbeat IPC: 1.944 cumulative IPC: 1.972 (Simulation time: 03 hr 42 min 02 sec)
Heartbeat CPU 0 instructions: 920000143 cycles: 443125888 heartbeat IPC: 2.003 cumulative IPC: 1.973 (Simulation time: 03 hr 44 min 27 sec)
Heartbeat CPU 3 instructions: 660000097 cycles: 444251410 heartbeat IPC: 1.389 cumulative IPC: 1.35 (Simulation time: 03 hr 45 min 00 sec)
Heartbeat CPU 2 instructions: 600000102 cycles: 445305758 heartbeat IPC: 1.272 cumulative IPC: 1.251 (Simulation time: 03 hr 45 min 31 sec)
Heartbeat CPU 0 instructions: 930000146 cycles: 448131832 heartbeat IPC: 1.998 cumulative IPC: 1.973 (Simulation time: 03 hr 46 min 53 sec)
Heartbeat CPU 3 instructions: 670000100 cycles: 451455015 heartbeat IPC: 1.388 cumulative IPC: 1.351 (Simulation time: 03 hr 48 min 29 sec)
Heartbeat CPU 0 instructions: 940000149 cycles: 453268761 heartbeat IPC: 1.947 cumulative IPC: 1.973 (Simulation time: 03 hr 49 min 21 sec)
Heartbeat CPU 2 instructions: 610000104 cycles: 453440309 heartbeat IPC: 1.229 cumulative IPC: 1.25 (Simulation time: 03 hr 49 min 26 sec)
Heartbeat CPU 0 instructions: 950000150 cycles: 458467729 heartbeat IPC: 1.923 cumulative IPC: 1.972 (Simulation time: 03 hr 51 min 52 sec)
Heartbeat CPU 3 instructions: 680000100 cycles: 458683756 heartbeat IPC: 1.383 cumulative IPC: 1.352 (Simulation time: 03 hr 51 min 58 sec)
Heartbeat CPU 2 instructions: 620000104 cycles: 461328589 heartbeat IPC: 1.268 cumulative IPC: 1.251 (Simulation time: 03 hr 53 min 15 sec)
Heartbeat CPU 0 instructions: 960000154 cycles: 463569664 heartbeat IPC: 1.96 cumulative IPC: 1.972 (Simulation time: 03 hr 54 min 20 sec)
Heartbeat CPU 3 instructions: 690000102 cycles: 465902038 heartbeat IPC: 1.385 cumulative IPC: 1.352 (Simulation time: 03 hr 55 min 27 sec)
Heartbeat CPU 0 instructions: 970000154 cycles: 468673240 heartbeat IPC: 1.959 cumulative IPC: 1.972 (Simulation time: 03 hr 56 min 48 sec)
Heartbeat CPU 2 instructions: 630000105 cycles: 469201411 heartbeat IPC: 1.27 cumulative IPC: 1.251 (Simulation time: 03 hr 57 min 03 sec)
Heartbeat CPU 1 instructions: 180000025 cycles: 470250515 heartbeat IPC: 0.292 cumulative IPC: 0.2907 (Simulation time: 03 hr 57 min 34 sec)
Heartbeat CPU 3 instructions: 700000102 cycles: 473129453 heartbeat IPC: 1.384 cumulative IPC: 1.353 (Simulation time: 03 hr 58 min 57 sec)
Heartbeat CPU 0 instructions: 980000155 cycles: 474005535 heartbeat IPC: 1.875 cumulative IPC: 1.971 (Simulation time: 03 hr 59 min 22 sec)
Heartbeat CPU 2 instructions: 640000105 cycles: 476987441 heartbeat IPC: 1.284 cumulative IPC: 1.251 (Simulation time: 04 hr 00 min 49 sec)
Heartbeat CPU 0 instructions: 990000158 cycles: 479079204 heartbeat IPC: 1.971 cumulative IPC: 1.971 (Simulation time: 04 hr 01 min 50 sec)
Heartbeat CPU 3 instructions: 710000104 cycles: 480324396 heartbeat IPC: 1.39 cumulative IPC: 1.353 (Simulation time: 04 hr 02 min 26 sec)
Heartbeat CPU 0 instructions: 1000000161 cycles: 484243546 heartbeat IPC: 1.936 cumulative IPC: 1.97 (Simulation time: 04 hr 04 min 20 sec)
Heartbeat CPU 2 instructions: 650000105 cycles: 484822661 heartbeat IPC: 1.276 cumulative IPC: 1.252 (Simulation time: 04 hr 04 min 37 sec)
Heartbeat CPU 3 instructions: 720000108 cycles: 487557526 heartbeat IPC: 1.383 cumulative IPC: 1.354 (Simulation time: 04 hr 05 min 56 sec)
Heartbeat CPU 0 instructions: 1010000161 cycles: 489357207 heartbeat IPC: 1.956 cumulative IPC: 1.97 (Simulation time: 04 hr 06 min 49 sec)
Heartbeat CPU 2 instructions: 660000106 cycles: 492592322 heartbeat IPC: 1.287 cumulative IPC: 1.252 (Simulation time: 04 hr 08 min 23 sec)
Heartbeat CPU 0 instructions: 1020000162 cycles: 494331837 heartbeat IPC: 2.01 cumulative IPC: 1.97 (Simulation time: 04 hr 09 min 14 sec)
Heartbeat CPU 3 instructions: 730000108 cycles: 494783360 heartbeat IPC: 1.384 cumulative IPC: 1.354 (Simulation time: 04 hr 09 min 27 sec)
Heartbeat CPU 0 instructions: 1030000163 cycles: 499341564 heartbeat IPC: 1.996 cumulative IPC: 1.971 (Simulation time: 04 hr 11 min 41 sec)
Heartbeat CPU 2 instructions: 670000110 cycles: 500030854 heartbeat IPC: 1.344 cumulative IPC: 1.254 (Simulation time: 04 hr 12 min 01 sec)
Heartbeat CPU 3 instructions: 740000108 cycles: 502018931 heartbeat IPC: 1.382 cumulative IPC: 1.355 (Simulation time: 04 hr 12 min 59 sec)
Heartbeat CPU 1 instructions: 190000026 cycles: 504252907 heartbeat IPC: 0.2941 cumulative IPC: 0.2909 (Simulation time: 04 hr 14 min 05 sec)
Heartbeat CPU 0 instructions: 1040000166 cycles: 504285110 heartbeat IPC: 2.023 cumulative IPC: 1.971 (Simulation time: 04 hr 14 min 05 sec)
Heartbeat CPU 2 instructions: 680000112 cycles: 507596577 heartbeat IPC: 1.322 cumulative IPC: 1.255 (Simulation time: 04 hr 15 min 42 sec)
Heartbeat CPU 0 instructions: 1050000167 cycles: 509144174 heartbeat IPC: 2.058 cumulative IPC: 1.972 (Simulation time: 04 hr 16 min 28 sec)
Heartbeat CPU 3 instructions: 750000108 cycles: 509272838 heartbeat IPC: 1.379 cumulative IPC: 1.355 (Simulation time: 04 hr 16 min 31 sec)
Heartbeat CPU 0 instructions: 1060000168 cycles: 514027916 heartbeat IPC: 2.048 cumulative IPC: 1.973 (Simulation time: 04 hr 18 min 50 sec)
Heartbeat CPU 2 instructions: 690000112 cycles: 515626908 heartbeat IPC: 1.245 cumulative IPC: 1.255 (Simulation time: 04 hr 19 min 36 sec)
Heartbeat CPU 3 instructions: 760000108 cycles: 516483790 heartbeat IPC: 1.387 cumulative IPC: 1.355 (Simulation time: 04 hr 20 min 01 sec)
Heartbeat CPU 0 instructions: 1070000169 cycles: 518929534 heartbeat IPC: 2.04 cumulative IPC: 1.974 (Simulation time: 04 hr 21 min 13 sec)
Heartbeat CPU 2 instructions: 700000113 cycles: 523621719 heartbeat IPC: 1.251 cumulative IPC: 1.255 (Simulation time: 04 hr 23 min 29 sec)
Heartbeat CPU 3 instructions: 770000111 cycles: 523660982 heartbeat IPC: 1.393 cumulative IPC: 1.356 (Simulation time: 04 hr 23 min 31 sec)
Heartbeat CPU 0 instructions: 1080000170 cycles: 523815368 heartbeat IPC: 2.047 cumulative IPC: 1.974 (Simulation time: 04 hr 23 min 35 sec)
Heartbeat CPU 0 instructions: 1090000171 cycles: 528683025 heartbeat IPC: 2.054 cumulative IPC: 1.975 (Simulation time: 04 hr 25 min 58 sec)
Heartbeat CPU 3 instructions: 780000111 cycles: 530904231 heartbeat IPC: 1.381 cumulative IPC: 1.356 (Simulation time: 04 hr 27 min 03 sec)
Heartbeat CPU 2 instructions: 710000113 cycles: 531290263 heartbeat IPC: 1.304 cumulative IPC: 1.256 (Simulation time: 04 hr 27 min 14 sec)
Heartbeat CPU 0 instructions: 1100000171 cycles: 533560485 heartbeat IPC: 2.05 cumulative IPC: 1.976 (Simulation time: 04 hr 28 min 21 sec)
Heartbeat CPU 1 instructions: 200000026 cycles: 537542544 heartbeat IPC: 0.3004 cumulative IPC: 0.2915 (Simulation time: 04 hr 30 min 18 sec)
Heartbeat CPU 3 instructions: 790000111 cycles: 538054289 heartbeat IPC: 1.399 cumulative IPC: 1.357 (Simulation time: 04 hr 30 min 33 sec)
Heartbeat CPU 0 instructions: 1110000172 cycles: 538454834 heartbeat IPC: 2.043 cumulative IPC: 1.976 (Simulation time: 04 hr 30 min 44 sec)
Heartbeat CPU 2 instructions: 720000114 cycles: 538821555 heartbeat IPC: 1.328 cumulative IPC: 1.257 (Simulation time: 04 hr 30 min 55 sec)
Heartbeat CPU 0 instructions: 1120000173 cycles: 543336670 heartbeat IPC: 2.048 cumulative IPC: 1.977 (Simulation time: 04 hr 33 min 07 sec)
Heartbeat CPU 3 instructions: 800000112 cycles: 545294838 heartbeat IPC: 1.381 cumulative IPC: 1.357 (Simulation time: 04 hr 34 min 05 sec)
Heartbeat CPU 2 instructions: 730000118 cycles: 546559387 heartbeat IPC: 1.292 cumulative IPC: 1.257 (Simulation time: 04 hr 34 min 42 sec)
Heartbeat CPU 0 instructions: 1130000175 cycles: 548252149 heartbeat IPC: 2.034 cumulative IPC: 1.978 (Simulation time: 04 hr 35 min 32 sec)
Heartbeat CPU 3 instructions: 810000112 cycles: 552464159 heartbeat IPC: 1.395 cumulative IPC: 1.358 (Simulation time: 04 hr 37 min 35 sec)
Heartbeat CPU 0 instructions: 1140000176 cycles: 553096980 heartbeat IPC: 2.064 cumulative IPC: 1.978 (Simulation time: 04 hr 37 min 54 sec)
Heartbeat CPU 2 instructions: 740000118 cycles: 554176848 heartbeat IPC: 1.313 cumulative IPC: 1.258 (Simulation time: 04 hr 38 min 25 sec)
Heartbeat CPU 0 instructions: 1150000177 cycles: 557871840 heartbeat IPC: 2.094 cumulative IPC: 1.979 (Simulation time: 04 hr 40 min 14 sec)
Heartbeat CPU 3 instructions: 820000116 cycles: 559698490 heartbeat IPC: 1.382 cumulative IPC: 1.358 (Simulation time: 04 hr 41 min 09 sec)
Heartbeat CPU 2 instructions: 750000119 cycles: 562439779 heartbeat IPC: 1.21 cumulative IPC: 1.257 (Simulation time: 04 hr 42 min 35 sec)
Heartbeat CPU 0 instructions: 1160000177 cycles: 565167084 heartbeat IPC: 1.371 cumulative IPC: 1.971 (Simulation time: 04 hr 43 min 57 sec)
Heartbeat CPU 3 instructions: 830000120 cycles: 566905641 heartbeat IPC: 1.388 cumulative IPC: 1.359 (Simulation time: 04 hr 44 min 48 sec)
Heartbeat CPU 0 instructions: 1170000177 cycles: 570077958 heartbeat IPC: 2.036 cumulative IPC: 1.972 (Simulation time: 04 hr 46 min 20 sec)
Heartbeat CPU 2 instructions: 760000122 cycles: 570353287 heartbeat IPC: 1.264 cumulative IPC: 1.257 (Simulation time: 04 hr 46 min 28 sec)
Heartbeat CPU 1 instructions: 210000026 cycles: 572463360 heartbeat IPC: 0.2864 cumulative IPC: 0.2912 (Simulation time: 04 hr 47 min 30 sec)
Heartbeat CPU 3 instructions: 840000123 cycles: 574082244 heartbeat IPC: 1.393 cumulative IPC: 1.359 (Simulation time: 04 hr 48 min 17 sec)
Heartbeat CPU 0 instructions: 1180000177 cycles: 574961028 heartbeat IPC: 2.048 cumulative IPC: 1.972 (Simulation time: 04 hr 48 min 43 sec)
Heartbeat CPU 2 instructions: 770000123 cycles: 578290537 heartbeat IPC: 1.26 cumulative IPC: 1.257 (Simulation time: 04 hr 50 min 19 sec)
Heartbeat CPU 0 instructions: 1190000179 cycles: 579852056 heartbeat IPC: 2.045 cumulative IPC: 1.973 (Simulation time: 04 hr 51 min 05 sec)
Heartbeat CPU 3 instructions: 850000123 cycles: 581312859 heartbeat IPC: 1.383 cumulative IPC: 1.359 (Simulation time: 04 hr 51 min 47 sec)
Heartbeat CPU 0 instructions: 1200000180 cycles: 584722637 heartbeat IPC: 2.053 cumulative IPC: 1.974 (Simulation time: 04 hr 53 min 26 sec)
Heartbeat CPU 2 instructions: 780000127 cycles: 586392292 heartbeat IPC: 1.234 cumulative IPC: 1.257 (Simulation time: 04 hr 54 min 15 sec)
Heartbeat CPU 3 instructions: 860000123 cycles: 588474803 heartbeat IPC: 1.396 cumulative IPC: 1.36 (Simulation time: 04 hr 55 min 17 sec)
Heartbeat CPU 0 instructions: 1210000182 cycles: 589598761 heartbeat IPC: 2.051 cumulative IPC: 1.974 (Simulation time: 04 hr 55 min 50 sec)
Heartbeat CPU 2 instructions: 790000128 cycles: 594225207 heartbeat IPC: 1.277 cumulative IPC: 1.257 (Simulation time: 04 hr 58 min 06 sec)
Heartbeat CPU 0 instructions: 1220000183 cycles: 594494660 heartbeat IPC: 2.043 cumulative IPC: 1.975 (Simulation time: 04 hr 58 min 13 sec)
Heartbeat CPU 3 instructions: 870000125 cycles: 595697138 heartbeat IPC: 1.385 cumulative IPC: 1.36 (Simulation time: 04 hr 58 min 48 sec)
Heartbeat CPU 0 instructions: 1230000186 cycles: 599364460 heartbeat IPC: 2.053 cumulative IPC: 1.976 (Simulation time: 05 hr 00 min 36 sec)
Heartbeat CPU 2 instructions: 800000130 cycles: 602017956 heartbeat IPC: 1.283 cumulative IPC: 1.258 (Simulation time: 05 hr 01 min 53 sec)
Heartbeat CPU 3 instructions: 880000127 cycles: 602906488 heartbeat IPC: 1.387 cumulative IPC: 1.36 (Simulation time: 05 hr 02 min 20 sec)
Heartbeat CPU 0 instructions: 1240000186 cycles: 604241600 heartbeat IPC: 2.05 cumulative IPC: 1.976 (Simulation time: 05 hr 02 min 59 sec)
Heartbeat CPU 1 instructions: 220000029 cycles: 606786461 heartbeat IPC: 0.2913 cumulative IPC: 0.2912 (Simulation time: 05 hr 04 min 13 sec)
Heartbeat CPU 0 instructions: 1250000190 cycles: 609142955 heartbeat IPC: 2.04 cumulative IPC: 1.977 (Simulation time: 05 hr 05 min 22 sec)
Heartbeat CPU 2 instructions: 810000130 cycles: 609855576 heartbeat IPC: 1.276 cumulative IPC: 1.258 (Simulation time: 05 hr 05 min 43 sec)
Heartbeat CPU 3 instructions: 890000128 cycles: 610066414 heartbeat IPC: 1.397 cumulative IPC: 1.361 (Simulation time: 05 hr 05 min 49 sec)
Heartbeat CPU 0 instructions: 1260000194 cycles: 613998134 heartbeat IPC: 2.06 cumulative IPC: 1.978 (Simulation time: 05 hr 07 min 45 sec)
Heartbeat CPU 3 instructions: 900000131 cycles: 617259509 heartbeat IPC: 1.39 cumulative IPC: 1.361 (Simulation time: 05 hr 09 min 20 sec)
Heartbeat CPU 2 instructions: 820000130 cycles: 617461773 heartbeat IPC: 1.315 cumulative IPC: 1.259 (Simulation time: 05 hr 09 min 26 sec)
Heartbeat CPU 0 instructions: 1270000194 cycles: 618860950 heartbeat IPC: 2.056 cumulative IPC: 1.978 (Simulation time: 05 hr 10 min 07 sec)
Heartbeat CPU 0 instructions: 1280000194 cycles: 623723213 heartbeat IPC: 2.057 cumulative IPC: 1.979 (Simulation time: 05 hr 12 min 30 sec)
Heartbeat CPU 3 instructions: 910000134 cycles: 624403266 heartbeat IPC: 1.4 cumulative IPC: 1.362 (Simulation time: 05 hr 12 min 50 sec)
Heartbeat CPU 2 instructions: 830000131 cycles: 625158885 heartbeat IPC: 1.299 cumulative IPC: 1.259 (Simulation time: 05 hr 13 min 13 sec)
Heartbeat CPU 0 instructions: 1290000196 cycles: 628615704 heartbeat IPC: 2.044 cumulative IPC: 1.979 (Simulation time: 05 hr 14 min 55 sec)
Heartbeat CPU 3 instructions: 920000134 cycles: 631594444 heartbeat IPC: 1.391 cumulative IPC: 1.362 (Simulation time: 05 hr 16 min 21 sec)
Heartbeat CPU 2 instructions: 840000132 cycles: 632666449 heartbeat IPC: 1.332 cumulative IPC: 1.26 (Simulation time: 05 hr 16 min 52 sec)
Heartbeat CPU 0 instructions: 1300000196 cycles: 633548808 heartbeat IPC: 2.027 cumulative IPC: 1.98 (Simulation time: 05 hr 17 min 18 sec)
Heartbeat CPU 0 instructions: 1310000197 cycles: 638577889 heartbeat IPC: 1.988 cumulative IPC: 1.98 (Simulation time: 05 hr 19 min 44 sec)
Heartbeat CPU 3 instructions: 930000135 cycles: 638831184 heartbeat IPC: 1.382 cumulative IPC: 1.362 (Simulation time: 05 hr 19 min 52 sec)
Heartbeat CPU 1 instructions: 230000031 cycles: 639454948 heartbeat IPC: 0.3061 cumulative IPC: 0.292 (Simulation time: 05 hr 20 min 10 sec)
Heartbeat CPU 2 instructions: 850000135 cycles: 640608039 heartbeat IPC: 1.259 cumulative IPC: 1.26 (Simulation time: 05 hr 20 min 44 sec)
Heartbeat CPU 0 instructions: 1320000201 cycles: 643581355 heartbeat IPC: 1.999 cumulative IPC: 1.98 (Simulation time: 05 hr 22 min 11 sec)
Heartbeat CPU 3 instructions: 940000137 cycles: 646002594 heartbeat IPC: 1.394 cumulative IPC: 1.363 (Simulation time: 05 hr 23 min 22 sec)
Heartbeat CPU 2 instructions: 860000135 cycles: 648399343 heartbeat IPC: 1.283 cumulative IPC: 1.26 (Simulation time: 05 hr 24 min 31 sec)
Heartbeat CPU 0 instructions: 1330000202 cycles: 648577845 heartbeat IPC: 2.001 cumulative IPC: 1.98 (Simulation time: 05 hr 24 min 36 sec)
Heartbeat CPU 3 instructions: 950000137 cycles: 653273477 heartbeat IPC: 1.375 cumulative IPC: 1.363 (Simulation time: 05 hr 26 min 54 sec)
Heartbeat CPU 0 instructions: 1340000202 cycles: 653652806 heartbeat IPC: 1.97 cumulative IPC: 1.98 (Simulation time: 05 hr 27 min 04 sec)
Heartbeat CPU 2 instructions: 870000135 cycles: 656041471 heartbeat IPC: 1.309 cumulative IPC: 1.261 (Simulation time: 05 hr 28 min 10 sec)
Heartbeat CPU 0 instructions: 1350000202 cycles: 658747975 heartbeat IPC: 1.963 cumulative IPC: 1.98 (Simulation time: 05 hr 29 min 23 sec)
Heartbeat CPU 0 instructions: 1360000202 cycles: 663807882 heartbeat IPC: 1.976 cumulative IPC: 1.98 (Simulation time: 05 hr 31 min 41 sec)
Heartbeat CPU 2 instructions: 880000138 cycles: 664198163 heartbeat IPC: 1.226 cumulative IPC: 1.26 (Simulation time: 05 hr 31 min 52 sec)
Heartbeat CPU 0 instructions: 1370000206 cycles: 669079471 heartbeat IPC: 1.897 cumulative IPC: 1.979 (Simulation time: 05 hr 34 min 13 sec)
Heartbeat CPU 3 instructions: 960000139 cycles: 670049303 heartbeat IPC: 0.5961 cumulative IPC: 1.343 (Simulation time: 05 hr 34 min 41 sec)
Heartbeat CPU 2 instructions: 890000138 cycles: 672143733 heartbeat IPC: 1.259 cumulative IPC: 1.26 (Simulation time: 05 hr 35 min 42 sec)
Heartbeat CPU 0 instructions: 1380000206 cycles: 674173627 heartbeat IPC: 1.963 cumulative IPC: 1.979 (Simulation time: 05 hr 36 min 41 sec)
Heartbeat CPU 1 instructions: 240000031 cycles: 674936227 heartbeat IPC: 0.2818 cumulative IPC: 0.2915 (Simulation time: 05 hr 37 min 03 sec)
Heartbeat CPU 3 instructions: 970000140 cycles: 677344141 heartbeat IPC: 1.371 cumulative IPC: 1.343 (Simulation time: 05 hr 38 min 13 sec)
Heartbeat CPU 0 instructions: 1390000209 cycles: 679513550 heartbeat IPC: 1.873 cumulative IPC: 1.978 (Simulation time: 05 hr 39 min 16 sec)
Heartbeat CPU 2 instructions: 900000139 cycles: 680101280 heartbeat IPC: 1.257 cumulative IPC: 1.26 (Simulation time: 05 hr 39 min 33 sec)
Heartbeat CPU 3 instructions: 980000140 cycles: 684572063 heartbeat IPC: 1.384 cumulative IPC: 1.344 (Simulation time: 05 hr 41 min 43 sec)
Heartbeat CPU 0 instructions: 1400000212 cycles: 684631977 heartbeat IPC: 1.954 cumulative IPC: 1.978 (Simulation time: 05 hr 41 min 45 sec)
Heartbeat CPU 2 instructions: 910000139 cycles: 687978400 heartbeat IPC: 1.269 cumulative IPC: 1.26 (Simulation time: 05 hr 43 min 23 sec)
Heartbeat CPU 0 instructions: 1410000216 cycles: 689674627 heartbeat IPC: 1.983 cumulative IPC: 1.978 (Simulation time: 05 hr 44 min 13 sec)
Heartbeat CPU 3 instructions: 990000143 cycles: 691819414 heartbeat IPC: 1.38 cumulative IPC: 1.344 (Simulation time: 05 hr 45 min 16 sec)
Heartbeat CPU 0 instructions: 1420000220 cycles: 694790782 heartbeat IPC: 1.955 cumulative IPC: 1.978 (Simulation time: 05 hr 46 min 42 sec)
Heartbeat CPU 2 instructions: 920000139 cycles: 695714319 heartbeat IPC: 1.293 cumulative IPC: 1.261 (Simulation time: 05 hr 47 min 09 sec)
Heartbeat CPU 3 instructions: 1000000146 cycles: 699112420 heartbeat IPC: 1.371 cumulative IPC: 1.344 (Simulation time: 05 hr 48 min 48 sec)
Heartbeat CPU 0 instructions: 1430000220 cycles: 699857149 heartbeat IPC: 1.974 cumulative IPC: 1.978 (Simulation time: 05 hr 49 min 10 sec)
Heartbeat CPU 2 instructions: 930000140 cycles: 703519275 heartbeat IPC: 1.281 cumulative IPC: 1.261 (Simulation time: 05 hr 50 min 57 sec)
Heartbeat CPU 0 instructions: 1440000223 cycles: 705064933 heartbeat IPC: 1.92 cumulative IPC: 1.977 (Simulation time: 05 hr 51 min 42 sec)
Heartbeat CPU 3 instructions: 1010000146 cycles: 706364418 heartbeat IPC: 1.379 cumulative IPC: 1.345 (Simulation time: 05 hr 52 min 21 sec)
Heartbeat CPU 1 instructions: 250000035 cycles: 708481366 heartbeat IPC: 0.2981 cumulative IPC: 0.2918 (Simulation time: 05 hr 53 min 23 sec)
Heartbeat CPU 0 instructions: 1450000226 cycles: 710154090 heartbeat IPC: 1.965 cumulative IPC: 1.977 (Simulation time: 05 hr 54 min 11 sec)
Heartbeat CPU 2 instructions: 940000140 cycles: 710958437 heartbeat IPC: 1.344 cumulative IPC: 1.262 (Simulation time: 05 hr 54 min 36 sec)
Heartbeat CPU 3 instructions: 1020000146 cycles: 713576515 heartbeat IPC: 1.387 cumulative IPC: 1.345 (Simulation time: 05 hr 55 min 52 sec)
Heartbeat CPU 0 instructions: 1460000227 cycles: 715241247 heartbeat IPC: 1.966 cumulative IPC: 1.977 (Simulation time: 05 hr 56 min 41 sec)
Heartbeat CPU 2 instructions: 950000141 cycles: 718539980 heartbeat IPC: 1.319 cumulative IPC: 1.263 (Simulation time: 05 hr 58 min 18 sec)
Heartbeat CPU 0 instructions: 1470000231 cycles: 720298888 heartbeat IPC: 1.977 cumulative IPC: 1.977 (Simulation time: 05 hr 59 min 09 sec)
Heartbeat CPU 3 instructions: 1030000147 cycles: 720854443 heartbeat IPC: 1.374 cumulative IPC: 1.345 (Simulation time: 05 hr 59 min 25 sec)
Heartbeat CPU 0 instructions: 1480000233 cycles: 725485134 heartbeat IPC: 1.928 cumulative IPC: 1.977 (Simulation time: 06 hr 01 min 41 sec)
Heartbeat CPU 2 instructions: 960000143 cycles: 726169911 heartbeat IPC: 1.311 cumulative IPC: 1.263 (Simulation time: 06 hr 02 min 01 sec)
Heartbeat CPU 3 instructions: 1040000149 cycles: 728064058 heartbeat IPC: 1.387 cumulative IPC: 1.346 (Simulation time: 06 hr 02 min 57 sec)
Heartbeat CPU 0 instructions: 1490000235 cycles: 730512420 heartbeat IPC: 1.989 cumulative IPC: 1.977 (Simulation time: 06 hr 04 min 08 sec)
Heartbeat CPU 2 instructions: 970000144 cycles: 733979177 heartbeat IPC: 1.281 cumulative IPC: 1.263 (Simulation time: 06 hr 05 min 49 sec)
Heartbeat CPU 3 instructions: 1050000149 cycles: 735290878 heartbeat IPC: 1.384 cumulative IPC: 1.346 (Simulation time: 06 hr 06 min 27 sec)
Heartbeat CPU 0 instructions: 1500000235 cycles: 735577805 heartbeat IPC: 1.974 cumulative IPC: 1.977 (Simulation time: 06 hr 06 min 36 sec)
Heartbeat CPU 0 instructions: 1510000238 cycles: 740621709 heartbeat IPC: 1.983 cumulative IPC: 1.977 (Simulation time: 06 hr 09 min 03 sec)
Heartbeat CPU 2 instructions: 980000145 cycles: 741836550 heartbeat IPC: 1.273 cumulative IPC: 1.263 (Simulation time: 06 hr 09 min 38 sec)
Heartbeat CPU 1 instructions: 260000036 cycles: 742203180 heartbeat IPC: 0.2965 cumulative IPC: 0.292 (Simulation time: 06 hr 09 min 49 sec)
Heartbeat CPU 3 instructions: 1060000153 cycles: 742515901 heartbeat IPC: 1.384 cumulative IPC: 1.347 (Simulation time: 06 hr 09 min 58 sec)
Heartbeat CPU 0 instructions: 1520000239 cycles: 745695966 heartbeat IPC: 1.971 cumulative IPC: 1.977 (Simulation time: 06 hr 11 min 31 sec)
Heartbeat CPU 2 instructions: 990000145 cycles: 749398309 heartbeat IPC: 1.322 cumulative IPC: 1.264 (Simulation time: 06 hr 13 min 19 sec)
Heartbeat CPU 3 instructions: 1070000155 cycles: 749716934 heartbeat IPC: 1.389 cumulative IPC: 1.347 (Simulation time: 06 hr 13 min 28 sec)
Heartbeat CPU 0 instructions: 1530000243 cycles: 750737729 heartbeat IPC: 1.983 cumulative IPC: 1.977 (Simulation time: 06 hr 13 min 58 sec)
Heartbeat CPU 0 instructions: 1540000245 cycles: 755791078 heartbeat IPC: 1.979 cumulative IPC: 1.977 (Simulation time: 06 hr 16 min 26 sec)
Heartbeat CPU 3 instructions: 1080000155 cycles: 756967501 heartbeat IPC: 1.379 cumulative IPC: 1.347 (Simulation time: 06 hr 16 min 59 sec)
Heartbeat CPU 2 instructions: 1000000145 cycles: 757635707 heartbeat IPC: 1.214 cumulative IPC: 1.263 (Simulation time: 06 hr 17 min 18 sec)
Heartbeat CPU 0 instructions: 1550000247 cycles: 760941325 heartbeat IPC: 1.942 cumulative IPC: 1.977 (Simulation time: 06 hr 18 min 55 sec)
Heartbeat CPU 3 instructions: 1090000158 cycles: 764177393 heartbeat IPC: 1.387 cumulative IPC: 1.348 (Simulation time: 06 hr 20 min 30 sec)
Heartbeat CPU 2 instructions: 1010000145 cycles: 765466528 heartbeat IPC: 1.277 cumulative IPC: 1.264 (Simulation time: 06 hr 21 min 07 sec)
Heartbeat CPU 0 instructions: 1560000250 cycles: 766034813 heartbeat IPC: 1.963 cumulative IPC: 1.977 (Simulation time: 06 hr 21 min 23 sec)
Heartbeat CPU 0 instructions: 1570000250 cycles: 771084177 heartbeat IPC: 1.98 cumulative IPC: 1.977 (Simulation time: 06 hr 23 min 50 sec)
Heartbeat CPU 3 instructions: 1100000159 cycles: 771404710 heartbeat IPC: 1.384 cumulative IPC: 1.348 (Simulation time: 06 hr 24 min 00 sec)
Heartbeat CPU 2 instructions: 1020000148 cycles: 773373698 heartbeat IPC: 1.265 cumulative IPC: 1.264 (Simulation time: 06 hr 24 min 57 sec)
Heartbeat CPU 0 instructions: 1580000254 cycles: 776126782 heartbeat IPC: 1.983 cumulative IPC: 1.977 (Simulation time: 06 hr 26 min 17 sec)
Heartbeat CPU 1 instructions: 270000036 cycles: 776818461 heartbeat IPC: 0.2889 cumulative IPC: 0.2919 (Simulation time: 06 hr 26 min 37 sec)
Heartbeat CPU 3 instructions: 1110000161 cycles: 778661342 heartbeat IPC: 1.378 cumulative IPC: 1.348 (Simulation time: 06 hr 27 min 30 sec)
Heartbeat CPU 0 instructions: 1590000254 cycles: 781193952 heartbeat IPC: 1.973 cumulative IPC: 1.977 (Simulation time: 06 hr 28 min 45 sec)
Heartbeat CPU 2 instructions: 1030000149 cycles: 781392472 heartbeat IPC: 1.247 cumulative IPC: 1.263 (Simulation time: 06 hr 28 min 50 sec)
Heartbeat CPU 3 instructions: 1120000161 cycles: 785873977 heartbeat IPC: 1.386 cumulative IPC: 1.349 (Simulation time: 06 hr 31 min 00 sec)
Heartbeat CPU 0 instructions: 1600000255 cycles: 786287320 heartbeat IPC: 1.963 cumulative IPC: 1.977 (Simulation time: 06 hr 31 min 12 sec)
Heartbeat CPU 2 instructions: 1040000153 cycles: 789278405 heartbeat IPC: 1.268 cumulative IPC: 1.263 (Simulation time: 06 hr 32 min 40 sec)
Heartbeat CPU 0 instructions: 1610000255 cycles: 791554330 heartbeat IPC: 1.899 cumulative IPC: 1.976 (Simulation time: 06 hr 33 min 46 sec)
Heartbeat CPU 3 instructions: 1130000163 cycles: 793145520 heartbeat IPC: 1.375 cumulative IPC: 1.349 (Simulation time: 06 hr 34 min 33 sec)
Heartbeat CPU 0 instructions: 1620000258 cycles: 796615140 heartbeat IPC: 1.976 cumulative IPC: 1.976 (Simulation time: 06 hr 36 min 14 sec)
Heartbeat CPU 2 instructions: 1050000154 cycles: 797002368 heartbeat IPC: 1.295 cumulative IPC: 1.264 (Simulation time: 06 hr 36 min 25 sec)
Heartbeat CPU 3 instructions: 1140000163 cycles: 800355107 heartbeat IPC: 1.387 cumulative IPC: 1.349 (Simulation time: 06 hr 38 min 03 sec)
Heartbeat CPU 0 instructions: 1630000258 cycles: 801690897 heartbeat IPC: 1.97 cumulative IPC: 1.976 (Simulation time: 06 hr 38 min 42 sec)
Heartbeat CPU 2 instructions: 1060000154 cycles: 804956782 heartbeat IPC: 1.257 cumulative IPC: 1.264 (Simulation time: 06 hr 40 min 16 sec)
Heartbeat CPU 0 instructions: 1640000260 cycles: 806769313 heartbeat IPC: 1.969 cumulative IPC: 1.976 (Simulation time: 06 hr 41 min 09 sec)
Heartbeat CPU 3 instructions: 1150000164 cycles: 807558980 heartbeat IPC: 1.388 cumulative IPC: 1.35 (Simulation time: 06 hr 41 min 32 sec)
Heartbeat CPU 1 instructions: 280000037 cycles: 811406065 heartbeat IPC: 0.2891 cumulative IPC: 0.2917 (Simulation time: 06 hr 43 min 23 sec)
Heartbeat CPU 0 instructions: 1650000262 cycles: 811963453 heartbeat IPC: 1.925 cumulative IPC: 1.976 (Simulation time: 06 hr 43 min 39 sec)
Heartbeat CPU 2 instructions: 1070000156 cycles: 812768669 heartbeat IPC: 1.28 cumulative IPC: 1.264 (Simulation time: 06 hr 44 min 02 sec)
Heartbeat CPU 3 instructions: 1160000164 cycles: 814883079 heartbeat IPC: 1.365 cumulative IPC: 1.35 (Simulation time: 06 hr 45 min 04 sec)
Heartbeat CPU 0 instructions: 1660000262 cycles: 817129501 heartbeat IPC: 1.936 cumulative IPC: 1.975 (Simulation time: 06 hr 46 min 09 sec)
Heartbeat CPU 2 instructions: 1080000158 cycles: 820608980 heartbeat IPC: 1.275 cumulative IPC: 1.264 (Simulation time: 06 hr 47 min 50 sec)
Heartbeat CPU 3 instructions: 1170000165 cycles: 822074601 heartbeat IPC: 1.391 cumulative IPC: 1.35 (Simulation time: 06 hr 48 min 33 sec)
Heartbeat CPU 0 instructions: 1670000265 cycles: 822256932 heartbeat IPC: 1.95 cumulative IPC: 1.975 (Simulation time: 06 hr 48 min 38 sec)
Heartbeat CPU 0 instructions: 1680000265 cycles: 827555325 heartbeat IPC: 1.887 cumulative IPC: 1.975 (Simulation time: 06 hr 51 min 12 sec)
Heartbeat CPU 2 instructions: 1090000159 cycles: 828558404 heartbeat IPC: 1.258 cumulative IPC: 1.264 (Simulation time: 06 hr 51 min 42 sec)
Heartbeat CPU 3 instructions: 1180000165 cycles: 829366171 heartbeat IPC: 1.371 cumulative IPC: 1.35 (Simulation time: 06 hr 52 min 05 sec)
Heartbeat CPU 0 instructions: 1690000268 cycles: 832679588 heartbeat IPC: 1.952 cumulative IPC: 1.975 (Simulation time: 06 hr 53 min 42 sec)
Heartbeat CPU 2 instructions: 1100000161 cycles: 836342585 heartbeat IPC: 1.285 cumulative IPC: 1.264 (Simulation time: 06 hr 55 min 29 sec)
Heartbeat CPU 3 instructions: 1190000165 cycles: 836645605 heartbeat IPC: 1.374 cumulative IPC: 1.351 (Simulation time: 06 hr 55 min 38 sec)
Heartbeat CPU 0 instructions: 1700000272 cycles: 837822945 heartbeat IPC: 1.944 cumulative IPC: 1.974 (Simulation time: 06 hr 56 min 12 sec)
Heartbeat CPU 0 instructions: 1710000273 cycles: 842938392 heartbeat IPC: 1.955 cumulative IPC: 1.974 (Simulation time: 06 hr 58 min 39 sec)
Heartbeat CPU 3 instructions: 1200000168 cycles: 843875235 heartbeat IPC: 1.383 cumulative IPC: 1.351 (Simulation time: 06 hr 59 min 07 sec)
Heartbeat CPU 2 instructions: 1110000161 cycles: 844335592 heartbeat IPC: 1.251 cumulative IPC: 1.264 (Simulation time: 06 hr 59 min 20 sec)
Heartbeat CPU 1 instructions: 290000041 cycles: 845773122 heartbeat IPC: 0.291 cumulative IPC: 0.2917 (Simulation time: 07 hr 00 min 02 sec)
Heartbeat CPU 0 instructions: 1720000273 cycles: 847947781 heartbeat IPC: 1.996 cumulative IPC: 1.974 (Simulation time: 07 hr 01 min 05 sec)
Heartbeat CPU 3 instructions: 1210000171 cycles: 851128357 heartbeat IPC: 1.379 cumulative IPC: 1.351 (Simulation time: 07 hr 02 min 37 sec)
Heartbeat CPU 2 instructions: 1120000161 cycles: 852379473 heartbeat IPC: 1.243 cumulative IPC: 1.264 (Simulation time: 07 hr 03 min 13 sec)
Heartbeat CPU 0 instructions: 1730000274 cycles: 852920938 heartbeat IPC: 2.011 cumulative IPC: 1.975 (Simulation time: 07 hr 03 min 29 sec)
Heartbeat CPU 0 instructions: 1740000274 cycles: 857918374 heartbeat IPC: 2.001 cumulative IPC: 1.975 (Simulation time: 07 hr 05 min 55 sec)
Heartbeat CPU 3 instructions: 1220000172 cycles: 858371153 heartbeat IPC: 1.381 cumulative IPC: 1.351 (Simulation time: 07 hr 06 min 08 sec)
Heartbeat CPU 2 instructions: 1130000161 cycles: 860351575 heartbeat IPC: 1.254 cumulative IPC: 1.264 (Simulation time: 07 hr 07 min 05 sec)
Heartbeat CPU 0 instructions: 1750000274 cycles: 862785295 heartbeat IPC: 2.055 cumulative IPC: 1.975 (Simulation time: 07 hr 08 min 16 sec)
Heartbeat CPU 3 instructions: 1230000175 cycles: 865651417 heartbeat IPC: 1.374 cumulative IPC: 1.352 (Simulation time: 07 hr 09 min 39 sec)
Heartbeat CPU 0 instructions: 1760000275 cycles: 867660621 heartbeat IPC: 2.051 cumulative IPC: 1.976 (Simulation time: 07 hr 10 min 39 sec)
Heartbeat CPU 2 instructions: 1140000162 cycles: 868224435 heartbeat IPC: 1.27 cumulative IPC: 1.264 (Simulation time: 07 hr 10 min 55 sec)
Heartbeat CPU 0 instructions: 1770000277 cycles: 872554827 heartbeat IPC: 2.043 cumulative IPC: 1.976 (Simulation time: 07 hr 13 min 02 sec)
Heartbeat CPU 3 instructions: 1240000175 cycles: 872904756 heartbeat IPC: 1.379 cumulative IPC: 1.352 (Simulation time: 07 hr 13 min 12 sec)
Heartbeat CPU 2 instructions: 1150000165 cycles: 876381532 heartbeat IPC: 1.226 cumulative IPC: 1.263 (Simulation time: 07 hr 14 min 54 sec)
Heartbeat CPU 0 instructions: 1780000277 cycles: 877410109 heartbeat IPC: 2.06 cumulative IPC: 1.976 (Simulation time: 07 hr 15 min 24 sec)
Simulation finished CPU 1 instructions: 250000004 cycles: 856504063 cumulative IPC: 0.2919 (Simulation time: 07 hr 16 min 26 sec)
Simulation complete CPU 3 instructions: 1158002693 cycles: 856504063 cumulative IPC: 1.352 (Simulation time: 07 hr 16 min 26 sec)
Simulation complete CPU 2 instructions: 1081992719 cycles: 856504063 cumulative IPC: 1.263 (Simulation time: 07 hr 16 min 26 sec)
Simulation complete CPU 1 instructions: 250000004 cycles: 856504063 cumulative IPC: 0.2919 (Simulation time: 07 hr 16 min 26 sec)
Simulation complete CPU 0 instructions: 1693031481 cycles: 856504063 cumulative IPC: 1.977 (Simulation time: 07 hr 16 min 26 sec)

ChampSim completed all CPUs

=== Simulation ===
CPU 0 runs /home/faculty/p/pgratz/dpc3_traces/603.bwaves_s-3699B.champsimtrace.xz
CPU 1 runs /home/faculty/p/pgratz/dpc3_traces/620.omnetpp_s-874B.champsimtrace.xz
CPU 2 runs /home/faculty/p/pgratz/dpc3_traces/631.deepsjeng_s-928B.champsimtrace.xz
CPU 3 runs /home/faculty/p/pgratz/dpc3_traces/641.leela_s-800B.champsimtrace.xz

Total Simulation Statistics (not including warmup)

CPU 3 cumulative IPC: 1.352 instructions: 1158002693 cycles: 856504063
CPU 3 Branch Prediction Accuracy: 86.95% MPKI: 21.35 Average ROB Occupancy at Mispredict: 20.81
Branch type MPKI
BRANCH_DIRECT_JUMP: 0.07469
BRANCH_INDIRECT: 0.0007237
BRANCH_CONDITIONAL: 21.25
BRANCH_DIRECT_CALL: 0.0001339
BRANCH_INDIRECT_CALL: 2.418e-05
BRANCH_RETURN: 0.02663


CPU 2 cumulative IPC: 1.263 instructions: 1081992719 cycles: 856504063
CPU 2 Branch Prediction Accuracy: 89.72% MPKI: 15.2 Average ROB Occupancy at Mispredict: 32.42
Branch type MPKI
BRANCH_DIRECT_JUMP: 0.02012
BRANCH_INDIRECT: 0.009444
BRANCH_CONDITIONAL: 14.69
BRANCH_DIRECT_CALL: 0.01855
BRANCH_INDIRECT_CALL: 0
BRANCH_RETURN: 0.4644


CPU 1 cumulative IPC: 0.2919 instructions: 250000004 cycles: 856504063
CPU 1 Branch Prediction Accuracy: 94.15% MPKI: 12.17 Average ROB Occupancy at Mispredict: 52.75
Branch type MPKI
BRANCH_DIRECT_JUMP: 0.9272
BRANCH_INDIRECT: 0.125
BRANCH_CONDITIONAL: 9.994
BRANCH_DIRECT_CALL: 0.000104
BRANCH_INDIRECT_CALL: 0.7322
BRANCH_RETURN: 0.3962


CPU 0 cumulative IPC: 1.977 instructions: 1693031481 cycles: 856504063
CPU 0 Branch Prediction Accuracy: 86.55% MPKI: 19.6 Average ROB Occupancy at Mispredict: 30.66
Branch type MPKI
BRANCH_DIRECT_JUMP: 0.05892
BRANCH_INDIRECT: 0
BRANCH_CONDITIONAL: 19.48
BRANCH_DIRECT_CALL: 0
BRANCH_INDIRECT_CALL: 0
BRANCH_RETURN: 0.06509

cpu3->cpu3_STLB TOTAL        ACCESS:     466428 HIT:     464608 MISS:       1820 MSHR_MERGE:          0
cpu3->cpu3_STLB LOAD         ACCESS:     466428 HIT:     464608 MISS:       1820 MSHR_MERGE:          0
cpu3->cpu3_STLB RFO          ACCESS:          0 HIT:          0 MISS:          0 MSHR_MERGE:          0
cpu3->cpu3_STLB PREFETCH     ACCESS:          0 HIT:          0 MISS:          0 MSHR_MERGE:          0
cpu3->cpu3_STLB WRITE        ACCESS:          0 HIT:          0 MISS:          0 MSHR_MERGE:          0
cpu3->cpu3_STLB TRANSLATION  ACCESS:          0 HIT:          0 MISS:          0 MSHR_MERGE:          0
cpu3->cpu3_STLB PREFETCH REQUESTED:          0 ISSUED:          0 USEFUL:          0 USELESS:          0
cpu3->cpu3_STLB AVERAGE MISS LATENCY: 691.3 cycles
cpu3->cpu3_L2C TOTAL        ACCESS:    3261256 HIT:    3093671 MISS:     167585 MSHR_MERGE:          0
cpu3->cpu3_L2C LOAD         ACCESS:    2401323 HIT:    2305351 MISS:      95972 MSHR_MERGE:          0
cpu3->cpu3_L2C RFO          ACCESS:     314943 HIT:     246218 MISS:      68725 MSHR_MERGE:          0
cpu3->cpu3_L2C PREFETCH     ACCESS:          0 HIT:          0 MISS:          0 MSHR_MERGE:          0
cpu3->cpu3_L2C WRITE        ACCESS:     542096 HIT:     542071 MISS:         25 MSHR_MERGE:          0
cpu3->cpu3_L2C TRANSLATION  ACCESS:       2894 HIT:         31 MISS:       2863 MSHR_MERGE:          0
cpu3->cpu3_L2C PREFETCH REQUESTED:          0 ISSUED:          0 USEFUL:          0 USELESS:          0
cpu3->cpu3_L2C AVERAGE MISS LATENCY: 249.8 cycles
cpu3->cpu3_L1I TOTAL        ACCESS:  117765986 HIT:  117648346 MISS:     117640 MSHR_MERGE:      51252
cpu3->cpu3_L1I LOAD         ACCESS:  117765986 HIT:  117648346 MISS:     117640 MSHR_MERGE:      51252
cpu3->cpu3_L1I RFO          ACCESS:          0 HIT:          0 MISS:          0 MSHR_MERGE:          0
cpu3->cpu3_L1I PREFETCH     ACCESS:          0 HIT:          0 MISS:          0 MSHR_MERGE:          0
cpu3->cpu3_L1I WRITE        ACCESS:          0 HIT:          0 MISS:          0 MSHR_MERGE:          0
cpu3->cpu3_L1I TRANSLATION  ACCESS:          0 HIT:          0 MISS:          0 MSHR_MERGE:          0
cpu3->cpu3_L1I PREFETCH REQUESTED:          0 ISSUED:          0 USEFUL:          0 USELESS:          0
cpu3->cpu3_L1I AVERAGE MISS LATENCY: 13.64 cycles
cpu3->cpu3_L1D TOTAL        ACCESS:  338560220 HIT:  334935800 MISS:    3624420 MSHR_MERGE:     971638
cpu3->cpu3_L1D LOAD         ACCESS:  207687662 HIT:  205069728 MISS:    2617934 MSHR_MERGE:     282997
cpu3->cpu3_L1D RFO          ACCESS:          0 HIT:          0 MISS:          0 MSHR_MERGE:          0
cpu3->cpu3_L1D PREFETCH     ACCESS:          0 HIT:          0 MISS:          0 MSHR_MERGE:          0
cpu3->cpu3_L1D WRITE        ACCESS:  130868916 HIT:  129865327 MISS:    1003589 MSHR_MERGE:     688638
cpu3->cpu3_L1D TRANSLATION  ACCESS:       3642 HIT:        745 MISS:       2897 MSHR_MERGE:          3
cpu3->cpu3_L1D PREFETCH REQUESTED:          0 ISSUED:          0 USEFUL:          0 USELESS:          0
cpu3->cpu3_L1D AVERAGE MISS LATENCY: 23.69 cycles
cpu3->cpu3_ITLB TOTAL        ACCESS:   97227119 HIT:   97226966 MISS:        153 MSHR_MERGE:         74
cpu3->cpu3_ITLB LOAD         ACCESS:   97227119 HIT:   97226966 MISS:        153 MSHR_MERGE:         74
cpu3->cpu3_ITLB RFO          ACCESS:          0 HIT:          0 MISS:          0 MSHR_MERGE:          0
cpu3->cpu3_ITLB PREFETCH     ACCESS:          0 HIT:          0 MISS:          0 MSHR_MERGE:          0
cpu3->cpu3_ITLB WRITE        ACCESS:          0 HIT:          0 MISS:          0 MSHR_MERGE:          0
cpu3->cpu3_ITLB TRANSLATION  ACCESS:          0 HIT:          0 MISS:          0 MSHR_MERGE:          0
cpu3->cpu3_ITLB PREFETCH REQUESTED:          0 ISSUED:          0 USEFUL:          0 USELESS:          0
cpu3->cpu3_ITLB AVERAGE MISS LATENCY: 585.8 cycles
cpu3->cpu3_DTLB TOTAL        ACCESS:  307909321 HIT:  307372363 MISS:     536958 MSHR_MERGE:      70609
cpu3->cpu3_DTLB LOAD         ACCESS:  307909321 HIT:  307372363 MISS:     536958 MSHR_MERGE:      70609
cpu3->cpu3_DTLB RFO          ACCESS:          0 HIT:          0 MISS:          0 MSHR_MERGE:          0
cpu3->cpu3_DTLB PREFETCH     ACCESS:          0 HIT:          0 MISS:          0 MSHR_MERGE:          0
cpu3->cpu3_DTLB WRITE        ACCESS:          0 HIT:          0 MISS:          0 MSHR_MERGE:          0
cpu3->cpu3_DTLB TRANSLATION  ACCESS:          0 HIT:          0 MISS:          0 MSHR_MERGE:          0
cpu3->cpu3_DTLB PREFETCH REQUESTED:          0 ISSUED:          0 USEFUL:          0 USELESS:          0
cpu3->cpu3_DTLB AVERAGE MISS LATENCY: 7.43 cycles
cpu2->cpu2_STLB TOTAL        ACCESS:     284109 HIT:      98003 MISS:     186106 MSHR_MERGE:          0
cpu2->cpu2_STLB LOAD         ACCESS:     284109 HIT:      98003 MISS:     186106 MSHR_MERGE:          0
cpu2->cpu2_STLB RFO          ACCESS:          0 HIT:          0 MISS:          0 MSHR_MERGE:          0
cpu2->cpu2_STLB PREFETCH     ACCESS:          0 HIT:          0 MISS:          0 MSHR_MERGE:          0
cpu2->cpu2_STLB WRITE        ACCESS:          0 HIT:          0 MISS:          0 MSHR_MERGE:          0
cpu2->cpu2_STLB TRANSLATION  ACCESS:          0 HIT:          0 MISS:          0 MSHR_MERGE:          0
cpu2->cpu2_STLB PREFETCH REQUESTED:          0 ISSUED:          0 USEFUL:          0 USELESS:          0
cpu2->cpu2_STLB AVERAGE MISS LATENCY: 916.7 cycles
cpu2->cpu2_L2C TOTAL        ACCESS:    3037112 HIT:    2227178 MISS:     809934 MSHR_MERGE:          0
cpu2->cpu2_L2C LOAD         ACCESS:    1648725 HIT:    1331688 MISS:     317037 MSHR_MERGE:          0
cpu2->cpu2_L2C RFO          ACCESS:     293631 HIT:     274919 MISS:      18712 MSHR_MERGE:          0
cpu2->cpu2_L2C PREFETCH     ACCESS:          0 HIT:          0 MISS:          0 MSHR_MERGE:          0
cpu2->cpu2_L2C WRITE        ACCESS:     548836 HIT:     547005 MISS:       1831 MSHR_MERGE:          0
cpu2->cpu2_L2C TRANSLATION  ACCESS:     545920 HIT:      73566 MISS:     472354 MSHR_MERGE:          0
cpu2->cpu2_L2C PREFETCH REQUESTED:          0 ISSUED:          0 USEFUL:          0 USELESS:          0
cpu2->cpu2_L2C AVERAGE MISS LATENCY: 209.5 cycles
cpu2->cpu2_L1I TOTAL        ACCESS:  126147593 HIT:  124870594 MISS:    1276999 MSHR_MERGE:     275060
cpu2->cpu2_L1I LOAD         ACCESS:  126147593 HIT:  124870594 MISS:    1276999 MSHR_MERGE:     275060
cpu2->cpu2_L1I RFO          ACCESS:          0 HIT:          0 MISS:          0 MSHR_MERGE:          0
cpu2->cpu2_L1I PREFETCH     ACCESS:          0 HIT:          0 MISS:          0 MSHR_MERGE:          0
cpu2->cpu2_L1I WRITE        ACCESS:          0 HIT:          0 MISS:          0 MSHR_MERGE:          0
cpu2->cpu2_L1I TRANSLATION  ACCESS:          0 HIT:          0 MISS:          0 MSHR_MERGE:          0
cpu2->cpu2_L1I PREFETCH REQUESTED:          0 ISSUED:          0 USEFUL:          0 USELESS:          0
cpu2->cpu2_L1I AVERAGE MISS LATENCY: 8.354 cycles
cpu2->cpu2_L1D TOTAL        ACCESS:  325278730 HIT:  323090697 MISS:    2188033 MSHR_MERGE:     701677
cpu2->cpu2_L1D LOAD         ACCESS:  196591552 HIT:  195732115 MISS:     859437 MSHR_MERGE:     212635
cpu2->cpu2_L1D RFO          ACCESS:          0 HIT:          0 MISS:          0 MSHR_MERGE:          0
cpu2->cpu2_L1D PREFETCH     ACCESS:          0 HIT:          0 MISS:          0 MSHR_MERGE:          0
cpu2->cpu2_L1D WRITE        ACCESS:  128127137 HIT:  127345701 MISS:     781436 MSHR_MERGE:     487802
cpu2->cpu2_L1D TRANSLATION  ACCESS:     560041 HIT:      12881 MISS:     547160 MSHR_MERGE:       1240
cpu2->cpu2_L1D PREFETCH REQUESTED:          0 ISSUED:          0 USEFUL:          0 USELESS:          0
cpu2->cpu2_L1D AVERAGE MISS LATENCY: 121.8 cycles
cpu2->cpu2_ITLB TOTAL        ACCESS:  107141453 HIT:  107141453 MISS:          0 MSHR_MERGE:          0
cpu2->cpu2_ITLB LOAD         ACCESS:  107141453 HIT:  107141453 MISS:          0 MSHR_MERGE:          0
cpu2->cpu2_ITLB RFO          ACCESS:          0 HIT:          0 MISS:          0 MSHR_MERGE:          0
cpu2->cpu2_ITLB PREFETCH     ACCESS:          0 HIT:          0 MISS:          0 MSHR_MERGE:          0
cpu2->cpu2_ITLB WRITE        ACCESS:          0 HIT:          0 MISS:          0 MSHR_MERGE:          0
cpu2->cpu2_ITLB TRANSLATION  ACCESS:          0 HIT:          0 MISS:          0 MSHR_MERGE:          0
cpu2->cpu2_ITLB PREFETCH REQUESTED:          0 ISSUED:          0 USEFUL:          0 USELESS:          0
cpu2->cpu2_ITLB AVERAGE MISS LATENCY: - cycles
cpu2->cpu2_DTLB TOTAL        ACCESS:  285432384 HIT:  284910641 MISS:     521743 MSHR_MERGE:     237634
cpu2->cpu2_DTLB LOAD         ACCESS:  285432384 HIT:  284910641 MISS:     521743 MSHR_MERGE:     237634
cpu2->cpu2_DTLB RFO          ACCESS:          0 HIT:          0 MISS:          0 MSHR_MERGE:          0
cpu2->cpu2_DTLB PREFETCH     ACCESS:          0 HIT:          0 MISS:          0 MSHR_MERGE:          0
cpu2->cpu2_DTLB WRITE        ACCESS:          0 HIT:          0 MISS:          0 MSHR_MERGE:          0
cpu2->cpu2_DTLB TRANSLATION  ACCESS:          0 HIT:          0 MISS:          0 MSHR_MERGE:          0
cpu2->cpu2_DTLB PREFETCH REQUESTED:          0 ISSUED:          0 USEFUL:          0 USELESS:          0
cpu2->cpu2_DTLB AVERAGE MISS LATENCY: 606.1 cycles
cpu1->cpu1_STLB TOTAL        ACCESS:    5156665 HIT:    4086366 MISS:    1070299 MSHR_MERGE:          0
cpu1->cpu1_STLB LOAD         ACCESS:    5156665 HIT:    4086366 MISS:    1070299 MSHR_MERGE:          0
cpu1->cpu1_STLB RFO          ACCESS:          0 HIT:          0 MISS:          0 MSHR_MERGE:          0
cpu1->cpu1_STLB PREFETCH     ACCESS:          0 HIT:          0 MISS:          0 MSHR_MERGE:          0
cpu1->cpu1_STLB WRITE        ACCESS:          0 HIT:          0 MISS:          0 MSHR_MERGE:          0
cpu1->cpu1_STLB TRANSLATION  ACCESS:          0 HIT:          0 MISS:          0 MSHR_MERGE:          0
cpu1->cpu1_STLB PREFETCH REQUESTED:          0 ISSUED:          0 USEFUL:          0 USELESS:          0
cpu1->cpu1_STLB AVERAGE MISS LATENCY: 348.4 cycles
cpu1->cpu1_L2C TOTAL        ACCESS:    9677177 HIT:    4494773 MISS:    5182404 MSHR_MERGE:          0
cpu1->cpu1_L2C LOAD         ACCESS:    4311826 HIT:    1403467 MISS:    2908359 MSHR_MERGE:          0
cpu1->cpu1_L2C RFO          ACCESS:     647217 HIT:     180842 MISS:     466375 MSHR_MERGE:          0
cpu1->cpu1_L2C PREFETCH     ACCESS:          0 HIT:          0 MISS:          0 MSHR_MERGE:          0
cpu1->cpu1_L2C WRITE        ACCESS:    2376492 HIT:    2372491 MISS:       4001 MSHR_MERGE:          0
cpu1->cpu1_L2C TRANSLATION  ACCESS:    2341642 HIT:     537973 MISS:    1803669 MSHR_MERGE:          0
cpu1->cpu1_L2C PREFETCH REQUESTED:          0 ISSUED:          0 USEFUL:          0 USELESS:          0
cpu1->cpu1_L2C AVERAGE MISS LATENCY: 184.5 cycles
cpu1->cpu1_L1I TOTAL        ACCESS:   34609031 HIT:   34480614 MISS:     128417 MSHR_MERGE:      31862
cpu1->cpu1_L1I LOAD         ACCESS:   34609031 HIT:   34480614 MISS:     128417 MSHR_MERGE:      31862
cpu1->cpu1_L1I RFO          ACCESS:          0 HIT:          0 MISS:          0 MSHR_MERGE:          0
cpu1->cpu1_L1I PREFETCH     ACCESS:          0 HIT:          0 MISS:          0 MSHR_MERGE:          0
cpu1->cpu1_L1I WRITE        ACCESS:          0 HIT:          0 MISS:          0 MSHR_MERGE:          0
cpu1->cpu1_L1I TRANSLATION  ACCESS:          0 HIT:          0 MISS:          0 MSHR_MERGE:          0
cpu1->cpu1_L1I PREFETCH REQUESTED:          0 ISSUED:          0 USEFUL:          0 USELESS:          0
cpu1->cpu1_L1I AVERAGE MISS LATENCY: 35.24 cycles
cpu1->cpu1_L1D TOTAL        ACCESS:  100537505 HIT:   90885430 MISS:    9652075 MSHR_MERGE:    2447930
cpu1->cpu1_L1D LOAD         ACCESS:   52420670 HIT:   46968494 MISS:    5452176 MSHR_MERGE:    1236893
cpu1->cpu1_L1D RFO          ACCESS:          0 HIT:          0 MISS:          0 MSHR_MERGE:          0
cpu1->cpu1_L1D PREFETCH     ACCESS:          0 HIT:          0 MISS:          0 MSHR_MERGE:          0
cpu1->cpu1_L1D WRITE        ACCESS:   45568090 HIT:   43716893 MISS:    1851197 MSHR_MERGE:    1203977
cpu1->cpu1_L1D TRANSLATION  ACCESS:    2548745 HIT:     200043 MISS:    2348702 MSHR_MERGE:       7060
cpu1->cpu1_L1D PREFETCH REQUESTED:          0 ISSUED:          0 USEFUL:          0 USELESS:          0
cpu1->cpu1_L1D AVERAGE MISS LATENCY: 141.1 cycles
cpu1->cpu1_ITLB TOTAL        ACCESS:   30557362 HIT:   29798933 MISS:     758429 MSHR_MERGE:     363864
[...]
cpu3->cpu3_L1I PREFETCH     ACCESS:          0 HIT:          0 MISS:          0 MSHR_MERGE:          0
cpu3->cpu3_L1I WRITE        ACCESS:          0 HIT:          0 MISS:          0 MSHR_MERGE:          0
cpu3->cpu3_L1I TRANSLATION  ACCESS:          0 HIT:          0 MISS:          0 MSHR_MERGE:          0
cpu3->cpu3_L1I PREFETCH REQUESTED:          0 ISSUED:          0 USEFUL:          0 USELESS:          0
cpu3->cpu3_L1I AVERAGE MISS LATENCY: 13.64 cycles
cpu3->cpu3_L1D TOTAL        ACCESS:  338560220 HIT:  334935800 MISS:    3624420 MSHR_MERGE:     971638
cpu3->cpu3_L1D LOAD         ACCESS:  207687662 HIT:  205069728 MISS:    2617934 MSHR_MERGE:     282997
cpu3->cpu3_L1D RFO          ACCESS:          0 HIT:          0 MISS:          0 MSHR_MERGE:          0
cpu3->cpu3_L1D PREFETCH     ACCESS:          0 HIT:          0 MISS:          0 MSHR_MERGE:          0
cpu3->cpu3_L1D WRITE        ACCESS:  130868916 HIT:  129865327 MISS:    1003589 MSHR_MERGE:     688638
cpu3->cpu3_L1D TRANSLATION  ACCESS:       3642 HIT:        745 MISS:       2897 MSHR_MERGE:          3
cpu3->cpu3_L1D PREFETCH REQUESTED:          0 ISSUED:          0 USEFUL:          0 USELESS:          0
cpu3->cpu3_L1D AVERAGE MISS LATENCY: 23.69 cycles
cpu3->cpu3_ITLB TOTAL        ACCESS:   97227119 HIT:   97226966 MISS:        153 MSHR_MERGE:         74
cpu3->cpu3_ITLB LOAD         ACCESS:   97227119 HIT:   97226966 MISS:        153 MSHR_MERGE:         74
cpu3->cpu3_ITLB RFO          ACCESS:          0 HIT:          0 MISS:          0 MSHR_MERGE:          0
cpu3->cpu3_ITLB PREFETCH     ACCESS:          0 HIT:          0 MISS:          0 MSHR_MERGE:          0
cpu3->cpu3_ITLB WRITE        ACCESS:          0 HIT:          0 MISS:          0 MSHR_MERGE:          0
cpu3->cpu3_ITLB TRANSLATION  ACCESS:          0 HIT:          0 MISS:          0 MSHR_MERGE:          0
cpu3->cpu3_ITLB PREFETCH REQUESTED:          0 ISSUED:          0 USEFUL:          0 USELESS:          0
cpu3->cpu3_ITLB AVERAGE MISS LATENCY: 585.8 cycles
cpu3->cpu3_DTLB TOTAL        ACCESS:  307909321 HIT:  307372363 MISS:     536958 MSHR_MERGE:      70609
cpu3->cpu3_DTLB LOAD         ACCESS:  307909321 HIT:  307372363 MISS:     536958 MSHR_MERGE:      70609
cpu3->cpu3_DTLB RFO          ACCESS:          0 HIT:          0 MISS:          0 MSHR_MERGE:          0
cpu3->cpu3_DTLB PREFETCH     ACCESS:          0 HIT:          0 MISS:          0 MSHR_MERGE:          0
cpu3->cpu3_DTLB WRITE        ACCESS:          0 HIT:          0 MISS:          0 MSHR_MERGE:          0
cpu3->cpu3_DTLB TRANSLATION  ACCESS:          0 HIT:          0 MISS:          0 MSHR_MERGE:          0
cpu3->cpu3_DTLB PREFETCH REQUESTED:          0 ISSUED:          0 USEFUL:          0 USELESS:          0
cpu3->cpu3_DTLB AVERAGE MISS LATENCY: 7.43 cycles
cpu2->cpu2_STLB TOTAL        ACCESS:     284109 HIT:      98003 MISS:     186106 MSHR_MERGE:          0
cpu2->cpu2_STLB LOAD         ACCESS:     284109 HIT:      98003 MISS:     186106 MSHR_MERGE:          0
cpu2->cpu2_STLB RFO          ACCESS:          0 HIT:          0 MISS:          0 MSHR_MERGE:          0
cpu2->cpu2_STLB PREFETCH     ACCESS:          0 HIT:          0 MISS:          0 MSHR_MERGE:          0
cpu2->cpu2_STLB WRITE        ACCESS:          0 HIT:          0 MISS:          0 MSHR_MERGE:          0
cpu2->cpu2_STLB TRANSLATION  ACCESS:          0 HIT:          0 MISS:          0 MSHR_MERGE:          0
cpu2->cpu2_STLB PREFETCH REQUESTED:          0 ISSUED:          0 USEFUL:          0 USELESS:          0
cpu2->cpu2_STLB AVERAGE MISS LATENCY: 916.7 cycles
cpu2->cpu2_L2C TOTAL        ACCESS:    3037112 HIT:    2227178 MISS:     809934 MSHR_MERGE:          0
cpu2->cpu2_L2C LOAD         ACCESS:    1648725 HIT:    1331688 MISS:     317037 MSHR_MERGE:          0
cpu2->cpu2_L2C RFO          ACCESS:     293631 HIT:     274919 MISS:      18712 MSHR_MERGE:          0
cpu2->cpu2_L2C PREFETCH     ACCESS:          0 HIT:          0 MISS:          0 MSHR_MERGE:          0
cpu2->cpu2_L2C WRITE        ACCESS:     548836 HIT:     547005 MISS:       1831 MSHR_MERGE:          0
cpu2->cpu2_L2C TRANSLATION  ACCESS:     545920 HIT:      73566 MISS:     472354 MSHR_MERGE:          0
cpu2->cpu2_L2C PREFETCH REQUESTED:          0 ISSUED:          0 USEFUL:          0 USELESS:          0
cpu2->cpu2_L2C AVERAGE MISS LATENCY: 209.5 cycles
cpu2->cpu2_L1I TOTAL        ACCESS:  126147593 HIT:  124870594 MISS:    1276999 MSHR_MERGE:     275060
cpu2->cpu2_L1I LOAD         ACCESS:  126147593 HIT:  124870594 MISS:    1276999 MSHR_MERGE:     275060
cpu2->cpu2_L1I RFO          ACCESS:          0 HIT:          0 MISS:          0 MSHR_MERGE:          0
cpu2->cpu2_L1I PREFETCH     ACCESS:          0 HIT:          0 MISS:          0 MSHR_MERGE:          0
cpu2->cpu2_L1I WRITE        ACCESS:          0 HIT:          0 MISS:          0 MSHR_MERGE:          0
cpu2->cpu2_L1I TRANSLATION  ACCESS:          0 HIT:          0 MISS:          0 MSHR_MERGE:          0
cpu2->cpu2_L1I PREFETCH REQUESTED:          0 ISSUED:          0 USEFUL:          0 USELESS:          0
cpu2->cpu2_L1I AVERAGE MISS LATENCY: 8.354 cycles
cpu2->cpu2_L1D TOTAL        ACCESS:  325278730 HIT:  323090697 MISS:    2188033 MSHR_MERGE:     701677
cpu2->cpu2_L1D LOAD         ACCESS:  196591552 HIT:  195732115 MISS:     859437 MSHR_MERGE:     212635
cpu2->cpu2_L1D RFO          ACCESS:          0 HIT:          0 MISS:          0 MSHR_MERGE:          0
cpu2->cpu2_L1D PREFETCH     ACCESS:          0 HIT:          0 MISS:          0 MSHR_MERGE:          0
cpu2->cpu2_L1D WRITE        ACCESS:  128127137 HIT:  127345701 MISS:     781436 MSHR_MERGE:     487802
cpu2->cpu2_L1D TRANSLATION  ACCESS:     560041 HIT:      12881 MISS:     547160 MSHR_MERGE:       1240
cpu2->cpu2_L1D PREFETCH REQUESTED:          0 ISSUED:          0 USEFUL:          0 USELESS:          0
cpu2->cpu2_L1D AVERAGE MISS LATENCY: 121.8 cycles
cpu2->cpu2_ITLB TOTAL        ACCESS:  107141453 HIT:  107141453 MISS:          0 MSHR_MERGE:          0
cpu2->cpu2_ITLB LOAD         ACCESS:  107141453 HIT:  107141453 MISS:          0 MSHR_MERGE:          0
cpu2->cpu2_ITLB RFO          ACCESS:          0 HIT:          0 MISS:          0 MSHR_MERGE:          0
cpu2->cpu2_ITLB PREFETCH     ACCESS:          0 HIT:          0 MISS:          0 MSHR_MERGE:          0
cpu2->cpu2_ITLB WRITE        ACCESS:          0 HIT:          0 MISS:          0 MSHR_MERGE:          0
cpu2->cpu2_ITLB TRANSLATION  ACCESS:          0 HIT:          0 MISS:          0 MSHR_MERGE:          0
cpu2->cpu2_ITLB PREFETCH REQUESTED:          0 ISSUED:          0 USEFUL:          0 USELESS:          0
cpu2->cpu2_ITLB AVERAGE MISS LATENCY: - cycles
cpu2->cpu2_DTLB TOTAL        ACCESS:  285432384 HIT:  284910641 MISS:     521743 MSHR_MERGE:     237634
cpu2->cpu2_DTLB LOAD         ACCESS:  285432384 HIT:  284910641 MISS:     521743 MSHR_MERGE:     237634
cpu2->cpu2_DTLB RFO          ACCESS:          0 HIT:          0 MISS:          0 MSHR_MERGE:          0
cpu2->cpu2_DTLB PREFETCH     ACCESS:          0 HIT:          0 MISS:          0 MSHR_MERGE:          0
cpu2->cpu2_DTLB WRITE        ACCESS:          0 HIT:          0 MISS:          0 MSHR_MERGE:          0
cpu2->cpu2_DTLB TRANSLATION  ACCESS:          0 HIT:          0 MISS:          0 MSHR_MERGE:          0
cpu2->cpu2_DTLB PREFETCH REQUESTED:          0 ISSUED:          0 USEFUL:          0 USELESS:          0
cpu2->cpu2_DTLB AVERAGE MISS LATENCY: 606.1 cycles
cpu1->cpu1_STLB TOTAL        ACCESS:    5156665 HIT:    4086366 MISS:    1070299 MSHR_MERGE:          0
cpu1->cpu1_STLB LOAD         ACCESS:    5156665 HIT:    4086366 MISS:    1070299 MSHR_MERGE:          0
cpu1->cpu1_STLB RFO          ACCESS:          0 HIT:          0 MISS:          0 MSHR_MERGE:          0
cpu1->cpu1_STLB PREFETCH     ACCESS:          0 HIT:          0 MISS:          0 MSHR_MERGE:          0
cpu1->cpu1_STLB WRITE        ACCESS:          0 HIT:          0 MISS:          0 MSHR_MERGE:          0
cpu1->cpu1_STLB TRANSLATION  ACCESS:          0 HIT:          0 MISS:          0 MSHR_MERGE:          0
cpu1->cpu1_STLB PREFETCH REQUESTED:          0 ISSUED:          0 USEFUL:          0 USELESS:          0
cpu1->cpu1_STLB AVERAGE MISS LATENCY: 348.4 cycles
cpu1->cpu1_L2C TOTAL        ACCESS:    9677177 HIT:    4494773 MISS:    5182404 MSHR_MERGE:          0
cpu1->cpu1_L2C LOAD         ACCESS:    4311826 HIT:    1403467 MISS:    2908359 MSHR_MERGE:          0
cpu1->cpu1_L2C RFO          ACCESS:     647217 HIT:     180842 MISS:     466375 MSHR_MERGE:          0
cpu1->cpu1_L2C PREFETCH     ACCESS:          0 HIT:          0 MISS:          0 MSHR_MERGE:          0
cpu1->cpu1_L2C WRITE        ACCESS:    2376492 HIT:    2372491 MISS:       4001 MSHR_MERGE:          0
cpu1->cpu1_L2C TRANSLATION  ACCESS:    2341642 HIT:     537973 MISS:    1803669 MSHR_MERGE:          0
cpu1->cpu1_L2C PREFETCH REQUESTED:          0 ISSUED:          0 USEFUL:          0 USELESS:          0
cpu1->cpu1_L2C AVERAGE MISS LATENCY: 184.5 cycles
cpu1->cpu1_L1I TOTAL        ACCESS:   34609031 HIT:   34480614 MISS:     128417 MSHR_MERGE:      31862
cpu1->cpu1_L1I LOAD         ACCESS:   34609031 HIT:   34480614 MISS:     128417 MSHR_MERGE:      31862
cpu1->cpu1_L1I RFO          ACCESS:          0 HIT:          0 MISS:          0 MSHR_MERGE:          0
cpu1->cpu1_L1I PREFETCH     ACCESS:          0 HIT:          0 MISS:          0 MSHR_MERGE:          0
cpu1->cpu1_L1I WRITE        ACCESS:          0 HIT:          0 MISS:          0 MSHR_MERGE:          0
cpu1->cpu1_L1I TRANSLATION  ACCESS:          0 HIT:          0 MISS:          0 MSHR_MERGE:          0
cpu1->cpu1_L1I PREFETCH REQUESTED:          0 ISSUED:          0 USEFUL:          0 USELESS:          0
cpu1->cpu1_L1I AVERAGE MISS LATENCY: 35.24 cycles
cpu1->cpu1_L1D TOTAL        ACCESS:  100537505 HIT:   90885430 MISS:    9652075 MSHR_MERGE:    2447930
cpu1->cpu1_L1D LOAD         ACCESS:   52420670 HIT:   46968494 MISS:    5452176 MSHR_MERGE:    1236893
cpu1->cpu1_L1D RFO          ACCESS:          0 HIT:          0 MISS:          0 MSHR_MERGE:          0
cpu1->cpu1_L1D PREFETCH     ACCESS:          0 HIT:          0 MISS:          0 MSHR_MERGE:          0
cpu1->cpu1_L1D WRITE        ACCESS:   45568090 HIT:   43716893 MISS:    1851197 MSHR_MERGE:    1203977
cpu1->cpu1_L1D TRANSLATION  ACCESS:    2548745 HIT:     200043 MISS:    2348702 MSHR_MERGE:       7060
cpu1->cpu1_L1D PREFETCH REQUESTED:          0 ISSUED:          0 USEFUL:          0 USELESS:          0
cpu1->cpu1_L1D AVERAGE MISS LATENCY: 141.1 cycles
cpu1->cpu1_ITLB TOTAL        ACCESS:   30557362 HIT:   29798933 MISS:     758429 MSHR_MERGE:     363864
cpu1->cpu1_ITLB LOAD         ACCESS:   30557362 HIT:   29798933 MISS:     758429 MSHR_MERGE:     363864
cpu1->cpu1_ITLB RFO          ACCESS:          0 HIT:          0 MISS:          0 MSHR_MERGE:          0
cpu1->cpu1_ITLB PREFETCH     ACCESS:          0 HIT:          0 MISS:          0 MSHR_MERGE:          0
cpu1->cpu1_ITLB WRITE        ACCESS:          0 HIT:          0 MISS:          0 MSHR_MERGE:          0
cpu1->cpu1_ITLB TRANSLATION  ACCESS:          0 HIT:          0 MISS:          0 MSHR_MERGE:          0
cpu1->cpu1_ITLB PREFETCH REQUESTED:          0 ISSUED:          0 USEFUL:          0 USELESS:          0
cpu1->cpu1_ITLB AVERAGE MISS LATENCY: 9.779 cycles
cpu1->cpu1_DTLB TOTAL        ACCESS:   92583506 HIT:   87000047 MISS:    5583459 MSHR_MERGE:     821359
cpu1->cpu1_DTLB LOAD         ACCESS:   92583506 HIT:   87000047 MISS:    5583459 MSHR_MERGE:     821359
cpu1->cpu1_DTLB RFO          ACCESS:          0 HIT:          0 MISS:          0 MSHR_MERGE:          0
cpu1->cpu1_DTLB PREFETCH     ACCESS:          0 HIT:          0 MISS:          0 MSHR_MERGE:          0
cpu1->cpu1_DTLB WRITE        ACCESS:          0 HIT:          0 MISS:          0 MSHR_MERGE:          0
cpu1->cpu1_DTLB TRANSLATION  ACCESS:          0 HIT:          0 MISS:          0 MSHR_MERGE:          0
cpu1->cpu1_DTLB PREFETCH REQUESTED:          0 ISSUED:          0 USEFUL:          0 USELESS:          0
cpu1->cpu1_DTLB AVERAGE MISS LATENCY: 83.13 cycles
cpu0->cpu0_STLB TOTAL        ACCESS:       4241 HIT:        191 MISS:       4050 MSHR_MERGE:          0
cpu0->cpu0_STLB LOAD         ACCESS:       4241 HIT:        191 MISS:       4050 MSHR_MERGE:          0
cpu0->cpu0_STLB RFO          ACCESS:          0 HIT:          0 MISS:          0 MSHR_MERGE:          0
cpu0->cpu0_STLB PREFETCH     ACCESS:          0 HIT:          0 MISS:          0 MSHR_MERGE:          0
cpu0->cpu0_STLB WRITE        ACCESS:          0 HIT:          0 MISS:          0 MSHR_MERGE:          0
cpu0->cpu0_STLB TRANSLATION  ACCESS:          0 HIT:          0 MISS:          0 MSHR_MERGE:          0
cpu0->cpu0_STLB PREFETCH REQUESTED:          0 ISSUED:          0 USEFUL:          0 USELESS:          0
cpu0->cpu0_STLB AVERAGE MISS LATENCY: 709 cycles
cpu0->cpu0_L2C TOTAL        ACCESS:     486542 HIT:     222406 MISS:     264136 MSHR_MERGE:          0
cpu0->cpu0_L2C LOAD         ACCESS:      46174 HIT:       2911 MISS:      43263 MSHR_MERGE:          0
cpu0->cpu0_L2C RFO          ACCESS:     217443 HIT:       1838 MISS:     215605 MSHR_MERGE:          0
cpu0->cpu0_L2C PREFETCH     ACCESS:          0 HIT:          0 MISS:          0 MSHR_MERGE:          0
cpu0->cpu0_L2C WRITE        ACCESS:     217770 HIT:     217415 MISS:        355 MSHR_MERGE:          0
cpu0->cpu0_L2C TRANSLATION  ACCESS:       5155 HIT:        242 MISS:       4913 MSHR_MERGE:          0
cpu0->cpu0_L2C PREFETCH REQUESTED:          0 ISSUED:          0 USEFUL:          0 USELESS:          0
cpu0->cpu0_L2C AVERAGE MISS LATENCY: 261.2 cycles
cpu0->cpu0_L1I TOTAL        ACCESS:   20944199 HIT:   20944199 MISS:          0 MSHR_MERGE:          0
cpu0->cpu0_L1I LOAD         ACCESS:   20944199 HIT:   20944199 MISS:          0 MSHR_MERGE:          0
cpu0->cpu0_L1I RFO          ACCESS:          0 HIT:          0 MISS:          0 MSHR_MERGE:          0
cpu0->cpu0_L1I PREFETCH     ACCESS:          0 HIT:          0 MISS:          0 MSHR_MERGE:          0
cpu0->cpu0_L1I WRITE        ACCESS:          0 HIT:          0 MISS:          0 MSHR_MERGE:          0
cpu0->cpu0_L1I TRANSLATION  ACCESS:          0 HIT:          0 MISS:          0 MSHR_MERGE:          0
cpu0->cpu0_L1I PREFETCH REQUESTED:          0 ISSUED:          0 USEFUL:          0 USELESS:          0
cpu0->cpu0_L1I AVERAGE MISS LATENCY: - cycles
cpu0->cpu0_L1D TOTAL        ACCESS:  405228073 HIT:  403646205 MISS:    1581868 MSHR_MERGE:    1313094
cpu0->cpu0_L1D LOAD         ACCESS:  339899172 HIT:  339818628 MISS:      80544 MSHR_MERGE:      34370
cpu0->cpu0_L1D RFO          ACCESS:          0 HIT:          0 MISS:          0 MSHR_MERGE:          0
cpu0->cpu0_L1D PREFETCH     ACCESS:          0 HIT:          0 MISS:          0 MSHR_MERGE:          0
cpu0->cpu0_L1D WRITE        ACCESS:   65320793 HIT:   63824626 MISS:    1496167 MSHR_MERGE:    1278722
cpu0->cpu0_L1D TRANSLATION  ACCESS:       8108 HIT:       2951 MISS:       5157 MSHR_MERGE:          2
cpu0->cpu0_L1D PREFETCH REQUESTED:          0 ISSUED:          0 USEFUL:          0 USELESS:          0
cpu0->cpu0_L1D AVERAGE MISS LATENCY: 265.9 cycles
cpu0->cpu0_ITLB TOTAL        ACCESS:   15746437 HIT:   15746437 MISS:          0 MSHR_MERGE:          0
cpu0->cpu0_ITLB LOAD         ACCESS:   15746437 HIT:   15746437 MISS:          0 MSHR_MERGE:          0
cpu0->cpu0_ITLB RFO          ACCESS:          0 HIT:          0 MISS:          0 MSHR_MERGE:          0
cpu0->cpu0_ITLB PREFETCH     ACCESS:          0 HIT:          0 MISS:          0 MSHR_MERGE:          0
cpu0->cpu0_ITLB WRITE        ACCESS:          0 HIT:          0 MISS:          0 MSHR_MERGE:          0
cpu0->cpu0_ITLB TRANSLATION  ACCESS:          0 HIT:          0 MISS:          0 MSHR_MERGE:          0
cpu0->cpu0_ITLB PREFETCH REQUESTED:          0 ISSUED:          0 USEFUL:          0 USELESS:          0
cpu0->cpu0_ITLB AVERAGE MISS LATENCY: - cycles
cpu0->cpu0_DTLB TOTAL        ACCESS:  392203401 HIT:  392163992 MISS:      39409 MSHR_MERGE:      35168
cpu0->cpu0_DTLB LOAD         ACCESS:  392203401 HIT:  392163992 MISS:      39409 MSHR_MERGE:      35168
cpu0->cpu0_DTLB RFO          ACCESS:          0 HIT:          0 MISS:          0 MSHR_MERGE:          0
cpu0->cpu0_DTLB PREFETCH     ACCESS:          0 HIT:          0 MISS:          0 MSHR_MERGE:          0
cpu0->cpu0_DTLB WRITE        ACCESS:          0 HIT:          0 MISS:          0 MSHR_MERGE:          0
cpu0->cpu0_DTLB TRANSLATION  ACCESS:          0 HIT:          0 MISS:          0 MSHR_MERGE:          0
cpu0->cpu0_DTLB PREFETCH REQUESTED:          0 ISSUED:          0 USEFUL:          0 USELESS:          0
cpu0->cpu0_DTLB AVERAGE MISS LATENCY: 683 cycles
cpu0->LLC TOTAL        ACCESS:     479773 HIT:        218 MISS:     479555 MSHR_MERGE:          0
cpu0->LLC LOAD         ACCESS:      43263 HIT:          0 MISS:      43263 MSHR_MERGE:          0
cpu0->LLC RFO          ACCESS:     215605 HIT:          2 MISS:     215603 MSHR_MERGE:          0
cpu0->LLC PREFETCH     ACCESS:          0 HIT:          0 MISS:          0 MSHR_MERGE:          0
cpu0->LLC WRITE        ACCESS:     215992 HIT:        216 MISS:     215776 MSHR_MERGE:          0
cpu0->LLC TRANSLATION  ACCESS:       4913 HIT:          0 MISS:       4913 MSHR_MERGE:          0
cpu0->LLC PREFETCH REQUESTED:          0 ISSUED:          0 USEFUL:          0 USELESS:          0
cpu0->LLC AVERAGE MISS LATENCY: 2376 cycles
cpu1->LLC TOTAL        ACCESS:    6863429 HIT:    2330706 MISS:    4532723 MSHR_MERGE:          0
cpu1->LLC LOAD         ACCESS:    2908359 HIT:     417745 MISS:    2490614 MSHR_MERGE:          0
cpu1->LLC RFO          ACCESS:     466375 HIT:     119354 MISS:     347021 MSHR_MERGE:          0
cpu1->LLC PREFETCH     ACCESS:          0 HIT:          0 MISS:          0 MSHR_MERGE:          0
cpu1->LLC WRITE        ACCESS:    1685026 HIT:    1523121 MISS:     161905 MSHR_MERGE:          0
cpu1->LLC TRANSLATION  ACCESS:    1803669 HIT:     270486 MISS:    1533183 MSHR_MERGE:          0
cpu1->LLC PREFETCH REQUESTED:          0 ISSUED:          0 USEFUL:          0 USELESS:          0
cpu1->LLC AVERAGE MISS LATENCY: 251.3 cycles
cpu2->LLC TOTAL        ACCESS:    1035176 HIT:     159091 MISS:     876085 MSHR_MERGE:          0
cpu2->LLC LOAD         ACCESS:     317037 HIT:       6579 MISS:     310458 MSHR_MERGE:          0
cpu2->LLC RFO          ACCESS:      18712 HIT:       8310 MISS:      10402 MSHR_MERGE:          0
cpu2->LLC PREFETCH     ACCESS:          0 HIT:          0 MISS:          0 MSHR_MERGE:          0
cpu2->LLC WRITE        ACCESS:     227073 HIT:     129255 MISS:      97818 MSHR_MERGE:          0
cpu2->LLC TRANSLATION  ACCESS:     472354 HIT:      14947 MISS:     457407 MSHR_MERGE:          0
cpu2->LLC PREFETCH REQUESTED:          0 ISSUED:          0 USEFUL:          0 USELESS:          0
cpu2->LLC AVERAGE MISS LATENCY: 1300 cycles
cpu3->LLC TOTAL        ACCESS:     240344 HIT:      67182 MISS:     173162 MSHR_MERGE:          0
cpu3->LLC LOAD         ACCESS:      95972 HIT:       9113 MISS:      86859 MSHR_MERGE:          0
cpu3->LLC RFO          ACCESS:      68725 HIT:        508 MISS:      68217 MSHR_MERGE:          0
cpu3->LLC PREFETCH     ACCESS:          0 HIT:          0 MISS:          0 MSHR_MERGE:          0
cpu3->LLC WRITE        ACCESS:      72784 HIT:      57559 MISS:      15225 MSHR_MERGE:          0
cpu3->LLC TRANSLATION  ACCESS:       2863 HIT:          2 MISS:       2861 MSHR_MERGE:          0
cpu3->LLC PREFETCH REQUESTED:          0 ISSUED:          0 USEFUL:          0 USELESS:          0
cpu3->LLC AVERAGE MISS LATENCY: 6579 cycles

DRAM Statistics

Channel 0 RQ ROW_BUFFER_HIT:      19902
  ROW_BUFFER_MISS:    5550064
  AVG DBUS CONGESTED CYCLE: 13.55
Channel 0 WQ ROW_BUFFER_HIT:     597170
  ROW_BUFFER_MISS:    1327651
  FULL:          0
Channel 0 REFRESHES ISSUED:      71376
